sol/case2869pegase.m
function mpc = case2869pegase
%CASE2869PEGASE

%% MATPOWER Case Format : Version 2
mpc.version = '2';

%%-----  Power Flow Data  -----%%
%% system MVA base
mpc.baseMVA = 100;

%% bus data
%	bus_i	type	Pd	Qd	Gs	Bs	area	Vm	Va	baseKV	zone	Vmax	Vmin	lam_P	lam_Q	mu_Vmax	mu_Vmin
mpc.bus = [
	3	1	151	48.8	0	4.69	0	1.07558669	-8.28931369	220	5	1.1	0.9	1.0232	0.0044	0.0000	0.0000;
	4	1	171.41	23.4	0	2.1	0	1.0586378	-5.68928159	220	5	1.1	0.9	1.0146	0.0030	0.0000	0.0000;
	10	1	134	24.7	0	12.44	0	1.06420378	-17.5241563	220	5	1.1	0.9	1.0423	-0.0086	0.0000	0.0000;
	15	1	59.67	26.7	0	12.84	0	1.06507906	-13.7586754	220	4	1.1	0.9	1.0325	-0.0001	0.0000	0.0000;
	21	1	161.2	39.3	0	30.71	0	1.06027509	-16.0449552	220	5	1.1	0.9	1.0378	-0.0024	0.0000	0.0000;
	22	1	0	-0	0	0.85	0	1.07902431	-10.9695207	220	5	1.1	0.9	1.0190	0.0034	0.0000	0.0000;
	26	1	167.3	54.8	0	110.54	0	1.07023114	-1.24258836	380	5	1.1	0.9	1.0014	0.0002	0.0000	0.0000;
	29	1	152.9	49.4	0	27.65	0	1.0501265	-2.98097005	380	5	1.1	0.9	1.0076	0.0007	0.0000	0.0000;
	32	2	0	0	0	0	0	1.03498271	-6.39888101	220	4	1.1	0.9	1.0125	-0.0018	0.0000	0.0000;
	33	2	0	0	0	0	0	1.05645125	-5.27942613	220	4	1.1	0.9	0.9991	0.0003	0.0000	0.0000;
	38	1	42.75	12.8	0	13.3	0	1.02492119	-3.67523067	220	8	1.1	0.9	1.0002	0.0030	0.0000	0.0000;
	39	2	0	0	0	0	0	1.02204115	-5.31560582	150	10	1.1	0.9	1.0000	-0.0000	0.0000	0.0000;
	42	1	20.82	7.9	0	26.89	0	1.08582712	-6.84172462	380	4	1.1	0.9	1.0135	-0.0017	0.0000	0.0000;
	44	1	-0	0	0	7.27	0	1.07108663	-15.5461507	220	5	1.1	0.9	1.0315	-0.0089	0.0000	0.0000;
	51	2	0	0	0	0	0	1.0688178	-5.32056484	220	4	1.1	0.9	1.0029	0.0001	0.0000	0.0000;
	52	1	127.6	31.8	0	20.51	0	1.06305613	-12.671806	150	8	1.1	0.9	1.0268	0.0053	0.0000	0.0000;
	53	1	48.65	16.1	0	7.14	0	1.09087557	-2.28870979	220	5	1.1	0.9	1.0011	0.0001	0.0000	0.0000;
	58	1	0	0	0	2.31	0	1.04515337	-1.15455059	380	5	1.1	0.9	1.0000	-0.0003	0.0000	0.0000;
	59	1	119.2	20.7	0	3.31	0	1.08368923	-11.9885388	220	5	1.1	0.9	1.0283	-0.0056	0.0000	0.0000;
	69	1	62.87	20.5	0	1.15	0	1.06287776	-13.7511538	150	8	1.1	0.9	1.0325	0.0050	0.0000	0.0000;
	71	1	126.3	42.4	0	55.24	0	1.07966053	-13.2985614	150	8	1.1	0.9	1.0291	-0.0006	0.0000	0.0000;
	72	1	6.91	-4.6	0	5.75	0	1.04612518	-6.47732947	220	4	1.1	0.9	1.0070	0.0017	0.0000	0.0000;
	75	1	38.74	6.1	0	1.17	0	1.07526168	-10.4267114	220	4	1.1	0.9	1.0180	-0.0008	0.0000	0.0000;
	76	1	22.13	10.7	0	14.21	0	1.02499723	-3.67128814	220	8	1.1	0.9	1.0002	0.0030	0.0000	0.0000;
	77	1	-0	-0	0	0.73	0	1.08182769	-7.08078542	220	4	1.1	0.9	1.0063	-0.0001	0.0000	0.0000;
	89	1	0	0	0.199111	4.530599	0	1.02595088	-5.70163112	380	2	1.1	0.9	1.0150	0.0039	0.0000	0.0000;
	90	1	363.25	115.39	0	3.95	0	1.07619128	-10.103575	220	5	1.1	0.9	1.0250	0.0050	0.0000	0.0000;
	91	1	-0	0	0	0.02	0	1.06659767	-11.5456905	150	8	1.1	0.9	1.0177	0.0047	0.0000	0.0000;
	96	1	-8.4	28.66	0	3.49	0	1.09590254	-1.95917599	220	5	1.1	0.9	1.0057	0.0013	0.0000	0.0000;
	113	1	-0	-0	0	6.532711	0	1.06554537	-4.12266839	380	5	1.1	0.9	1.0095	0.0011	0.0000	0.0000;
	115	1	0	-0	0	4.21	0	1.06847028	-12.7360286	220	5	1.1	0.9	1.0257	0.0049	0.0000	0.0000;
	118	1	704.53	-35.33	0	13.102834	0	1.07398221	-4.13156248	380	5	1.1	0.9	1.0070	-0.0002	0.0000	0.0000;
	124	2	0	0	0	0	0	1.07025039	2.31262115	220	5	1.1	0.9	0.9965	-0.0000	0.0000	0.0000;
	128	1	23.73	12.7	0	0.52	0	1.0519919	-12.9477188	220	5	1.1	0.9	1.0346	0.0069	0.0000	0.0000;
	130	1	-0	0	0.135375	47.750675	0	1.09049692	-10.604004	380	10	1.1	0.9	1.0243	-0.0013	0.0000	0.0000;
	132	1	0	-0	0	21.39	0	1.09110709	-7.32487534	380	1	1.1	0.9	1.0125	-0.0027	0.0000	0.0000;
	133	1	38.14	12.5	0	6.28	0	1.0677772	-11.4373658	150	8	1.1	0.9	1.0236	0.0049	0.0000	0.0000;
	138	1	-75.38	7.8	0	29.9	0	1.09517712	-7.96189212	380	10	1.1	0.9	1.0142	-0.0050	0.0000	0.0000;
	139	1	-764.34	66.91	0	33.47	0	1.04292861	-3.31340201	380	8	1.1	0.9	1.0079	-0.0102	0.0000	0.0000;
	140	1	0	0	0	4.14	0	1.04854836	-8.56963096	220	8	1.1	0.9	1.0247	0.0016	0.0000	0.0000;
	143	1	0	0	0	0	0	1.05570475	-12.5028882	150	8	1.1	0.9	1.0278	0.0039	0.0000	0.0000;
	145	1	38.34	5.6	0	7.64	0	1.09157582	-4.27673208	220	5	1.1	0.9	1.0024	-0.0000	0.0000	0.0000;
	148	1	32.34	12	0	6.1	0	1.0680927	-4.60875247	220	5	1.1	0.9	1.0072	0.0012	0.0000	0.0000;
	150	2	0	0	0	0	0	1.0810896	-3.34875923	220	5	1.1	0.9	1.0000	-0.0000	0.0000	0.0000;
	163	1	147.76	32.73	0	8.34	0	1.07960734	-8.46060936	220	5	1.1	0.9	1.0167	0.0041	0.0000	0.0000;
	164	1	0	-0	0	5.17	0	1.05503569	-17.6200025	150	8	1.1	0.9	1.0543	0.0087	0.0000	0.0000;
	171	1	100.8	13.2	0	5.24	0	1.06195751	-7.54217142	220	5	1.1	0.9	1.0065	0.0028	0.0000	0.0000;
	172	1	111.7	10.96	0	4.22	0	1.06248678	-5.94301631	220	4	1.1	0.9	1.0056	0.0002	0.0000	0.0000;
	174	1	370.5	-17	0	9.91	0	1.09085895	-16.3240268	220	5	1.1	0.9	1.0450	0.0016	0.0000	0.0000;
	177	1	94.9	36.2	0	16.46	0	0.998213119	-9.81514366	220	10	1.1	0.9	1.0220	0.0016	0.0000	0.0000;
	179	2	0	0	0	0	0	1.09230351	-5.42100965	380	4	1.1	0.9	1.0060	-0.0004	0.0000	0.0000;
	184	1	-0	-0	0	2.42	0	1.06540822	-10.6218243	220	5	1.1	0.9	1.0213	0.0035	0.0000	0.0000;
	188	1	36.84	13.9	0	3.3	0	1.05660622	-9.77458612	220	5	1.1	0.9	1.0217	0.0049	0.0000	0.0000;
	194	2	0	0	0	0	0	1.08275332	-2.83226366	150	8	1.1	0.9	1.0000	0.0000	0.0000	0.0000;
	195	1	73.14	21.55	0	8.52	0	1.08685751	-3.49588742	220	5	1.1	0.9	1.0014	0.0001	0.0000	0.0000;
	196	1	0	-0	0	12.48	0	1.09931862	-20.5008021	220	5	1.1	0.9	1.0251	-0.0939	0.0000	0.0000;
	198	1	39.74	11.8	0	1.44	0	1.04785456	-13.3466532	220	5	1.1	0.9	1.0374	0.0082	0.0000	0.0000;
	199	1	86.8	28.4	0	1.34	0	1.06212744	-12.3095446	150	8	1.1	0.9	1.0229	0.0058	0.0000	0.0000;
	201	2	0	0	0	0	0	1.08073499	-8.46095483	220	4	1.1	0.9	1.0079	-0.0005	0.0000	0.0000;
	205	1	46.15	18.2	0	1.29	0	1.05200959	-11.968976	150	8	1.1	0.9	1.0240	0.0042	0.0000	0.0000;
	207	1	321.98	84.4	0	1.34	0	1.04998768	-12.3219756	220	5	1.1	0.9	1.0333	0.0068	0.0000	0.0000;
	211	1	75.28	19.2	0	1.9	0	1.05364162	-12.3722077	110	8	1.1	0.9	1.0316	0.0017	0.0000	0.0000;
	216	1	155.6	54.7	0	2.21	0	1.0864072	-15.3999365	220	5	1.1	0.9	1.0369	0.0004	0.0000	0.0000;
	217	1	105.2	0.1	0	7.36	0	1.04337915	-6.82291926	220	5	1.1	0.9	1.0153	0.0032	0.0000	0.0000;
	218	1	69.83	15.12	0	2.23	0	1.08897494	-7.84656458	220	5	1.1	0.9	1.0144	0.0023	0.0000	0.0000;
	221	2	0	0	0	0	0	1.04083141	-1.18800815	380	5	1.1	0.9	1.0001	-0.0000	0.0000	0.0000;
	225	1	0	0	0	1.15	0	1.06560846	-13.1141344	220	5	1.1	0.9	1.0282	0.0055	0.0000	0.0000;
	228	1	-23.43	57.4	0	0	0	1.07661662	-8.34946761	150	2	1.1	0.9	1.0012	0.0017	0.0000	0.0000;
	230	1	152.07	22.52	0	7.87	0	1.05111492	-5.04655339	220	4	1.1	0.9	1.0086	0.0015	0.0000	0.0000;
	231	1	-0.13	-1	0	0	0	1.02179638	-6.89611077	110	8	1.1	0.9	1.0105	0.0073	0.0000	0.0000;
	236	1	45.85	7	0	1.05	0	1.07106174	-12.4003893	220	4	1.1	0.9	1.0272	-0.0020	0.0000	0.0000;
	243	1	0	-0.01	0	13.49	0	1.06090716	-1.62511832	150	8	1.1	0.9	1.0029	0.0004	0.0000	0.0000;
	244	1	-0	-0	0	0.68	0	1.0687985	-9.14332328	150	8	1.1	0.9	1.0105	0.0037	0.0000	0.0000;
	249	1	-0	-0	0	26.3	0	1.03460228	-6.40604043	220	4	1.1	0.9	1.0125	-0.0016	0.0000	0.0000;
	257	1	113.9	24.5	0	6.72	0	1.06611831	-8.79174204	220	4	1.1	0.9	1.0167	-0.0013	0.0000	0.0000;
	261	1	-0	0	0	1.29	0	1.08665108	-10.7691316	380	10	1.1	0.9	1.0270	-0.0012	0.0000	0.0000;
	264	1	38.74	9	0	0.57	0	1.06390202	-5.2367116	220	4	1.1	0.9	1.0023	0.0001	0.0000	0.0000;
	266	1	0	-0	0	140.96	0	1.08841307	-4.02693563	380	4	1.1	0.9	1.0022	-0.0033	0.0000	0.0000;
	267	1	103.8	2.7	0	3.33	0	1.07367303	-9.2464232	220	4	1.1	0.9	1.0200	0.0005	0.0000	0.0000;
	268	1	-0.13	-1	0	0	0	1.0412062	-3.43997476	220	8	1.1	0.9	1.0005	0.0020	0.0000	0.0000;
	271	1	96.7	26.8	0	0	0	1.07143216	-9.91354614	150	2	1.1	0.9	1.0130	0.0044	0.0000	0.0000;
	275	1	102.1	25.3	0	1.11	0	1.06196182	-11.9508105	150	8	1.1	0.9	1.0287	0.0062	0.0000	0.0000;
	280	1	119.6	29.6	0	5.34	0	1.07979734	-5.60673463	220	5	1.1	0.9	1.0066	0.0004	0.0000	0.0000;
	281	1	-0	-0	0	18.07	0	1.07814085	-4.12056724	380	8	1.1	0.9	1.0110	0.0019	0.0000	0.0000;
	283	1	27.33	11.9	0	1.17	0	1.05937848	-11.1318233	220	5	1.1	0.9	1.0260	0.0049	0.0000	0.0000;
	284	1	191.2	-3.4	0	19.21	0	1.06500323	-13.8191321	220	4	1.1	0.9	1.0329	-0.0002	0.0000	0.0000;
	292	1	13.82	1.4	0	0.7	0	1.09712648	-7.61052122	220	5	1.1	0.9	1.0140	0.0014	0.0000	0.0000;
	297	1	23.73	9.4	0	1.45	0	1.06259178	-12.50318	150	8	1.1	0.9	1.0269	0.0041	0.0000	0.0000;
	299	2	0	0	0	0	0	1.1	-3.64328323	380	4	1.1	0.9	1.0000	-0.0000	23.3577	0.0000;
	304	1	2.2	0.5	0	0.21	0	1.02577884	-17.7388421	150	10	1.1	0.9	1.0459	0.0007	0.0000	0.0000;
	305	1	103	12	0	0.63	0	1.08239262	-18.9329508	220	5	1.1	0.9	1.0465	-0.0047	0.0000	0.0000;
	306	1	-0	0	0	4.76	0	1.04695685	-14.1772574	220	5	1.1	0.9	1.0268	-0.0030	0.0000	0.0000;
	311	1	42.05	17.2	0	1.31	0	1.06078025	-12.6847327	150	8	1.1	0.9	1.0269	0.0100	0.0000	0.0000;
	312	1	-0.16	-2.91	0	0.43	0	1.09782251	-9.40895183	110	8	1.1	0.9	1.0001	-0.0432	0.0000	0.0000;
	314	1	163.1	46.3	0	10.6	0	1.03435621	-14.3656904	220	5	1.1	0.9	1.0397	0.0132	0.0000	0.0000;
	315	1	-0	-0	0	2.13	0	1.04097558	-5.91769256	220	10	1.1	0.9	1.0030	-0.0026	0.0000	0.0000;
	317	1	-0	-0	0.045946	-1.82203	0	1.04047535	-2.05203175	380	2	1.1	0.9	1.0002	-0.0001	0.0000	0.0000;
	322	1	303.8	85.4	0	3.63	0	0.988753865	-11.3028386	220	10	1.1	0.9	1.0292	0.0036	0.0000	0.0000;
	326	1	0	0	0	0	0	1.04119413	-3.40531187	220	8	1.1	0.9	1.0006	0.0020	0.0000	0.0000;
	333	1	524.5	43	0	6.85	0	1.03832817	-26.4221222	220	5	1.1	0.9	1.1045	0.0123	0.0000	0.0000;
	338	2	0	0	0	0	0	1.0992555	-3.14260798	220	5	1.1	0.9	1.0000	-0.0000	0.0000	0.0000;
	344	1	372.8	147.5	0	27.73	0	1.06930826	-18.1963145	150	8	1.1	0.9	1.0544	0.0060	0.0000	0.0000;
	346	1	197.5	48.3	0	0.71	0	1.0849221	-13.1962302	220	5	1.1	0.9	1.0307	0.0014	0.0000	0.0000;
	349	1	-0	0	0	15.15	0	1.0825342	-9.38176817	150	8	1.1	0.9	1.0212	0.0041	0.0000	0.0000;
	350	1	110.4	26.2	0	5.62	0	1.06861913	-16.5814435	220	5	1.1	0.9	1.0390	-0.0083	0.0000	0.0000;
	351	1	-0.15	-1.93	0	0	0	1.04554864	-8.28248642	220	8	1.1	0.9	1.0233	0.0017	0.0000	0.0000;
	352	2	0	0	0	0	0	1.01938697	1.51045189	380	5	1.1	0.9	1.0000	-0.0000	0.0000	0.0000;
	360	1	35.54	11.5	0	3.65	0	1.09125935	-9.57288328	110	8	1.1	0.9	1.0059	-0.0435	0.0000	0.0000;
	367	1	65.17	-51.5	0	4.85	0	1.09517984	-17.892377	220	5	1.1	0.9	1.0244	-0.0703	0.0000	0.0000;
	369	1	-0	0	0	3.78	0	1.07525516	-9.8477066	220	8	1.1	0.9	1.0327	-0.0025	0.0000	0.0000;
	370	1	56.76	23.2	0	0.49	0	1.05822763	-12.8560066	150	8	1.1	0.9	1.0291	0.0109	0.0000	0.0000;
	377	1	-0.18	-1	0	0	0	1.07181289	-5.56819304	150	8	1.1	0.9	1.0138	0.0023	0.0000	0.0000;
	380	1	-95.71	-2.8	0	7.25	0	1.01426679	-3.26302237	220	10	1.1	0.9	0.9899	-0.0008	0.0000	0.0000;
	385	1	-0	-0	0	105.84	0	1.08477967	-8.95977893	380	4	1.1	0.9	1.0202	-0.0024	0.0000	0.0000;
	387	1	-0.19	-4.38	0	0	0	1.06771239	-11.0108918	150	8	1.1	0.9	1.0210	0.0051	0.0000	0.0000;
	389	2	0	0	0	0	0	1.03102888	-8.32495263	150	10	1.1	0.9	1.0000	-0.0000	0.0000	0.0000;
	392	1	134.1	34.2	0	0.75	0	1.05690801	-13.7336737	150	8	1.1	0.9	1.0299	0.0063	0.0000	0.0000;
	395	1	-0	-0	0	7.85	0	1.07786555	-3.63505483	380	8	1.1	0.9	1.0128	0.0025	0.0000	0.0000;
	401	1	56.5	36.29	0	3.08	0	1.09477044	-5.09079523	220	5	1.1	0.9	1.0005	0.0002	0.0000	0.0000;
	408	1	129.1	7.4	0	0.04	0	1.06847561	-10.6608571	220	5	1.1	0.9	1.0227	0.0026	0.0000	0.0000;
	410	1	170.89	50.38	0	6.44	0	1.08289273	-10.7383584	220	5	1.1	0.9	1.0251	0.0002	0.0000	0.0000;
	413	2	0	0	0	0	0	1.07837454	1.005023	220	5	1.1	0.9	1.0000	-0.0000	0.0000	0.0000;
	415	1	4.71	0.7	0	11.39	0	1.069427	-10.2778067	220	4	1.1	0.9	1.0177	-0.0018	0.0000	0.0000;
	416	1	70.68	13.5	0	6.96	0	1.08893667	-5.76149715	220	5	1.1	0.9	1.0046	0.0012	0.0000	0.0000;
	420	1	0	0	0	0	0	1.09115786	-1.44211171	380	8	1.1	0.9	1.0025	0.0007	0.0000	0.0000;
	425	1	-0	0	0	2.72	0	1.05830955	-4.89557194	380	1	1.1	0.9	1.0133	0.0018	0.0000	0.0000;
	426	1	123.1	6.5	0	3.25	0	1.08060368	-9.54360418	220	5	1.1	0.9	1.0307	0.0011	0.0000	0.0000;
	427	1	-0	0	0	1.24	0	1.08650346	-4.22731369	380	1	1.1	0.9	1.0000	-0.0022	0.0000	0.0000;
	429	1	26.93	-22.4	0	4.95	0	1.08621403	-6.23788287	220	4	1.1	0.9	1.0014	0.0003	0.0000	0.0000;
	432	1	-0	-0	0	68.517663	0	1.05994795	0.0965048005	380	5	1.1	0.9	0.9978	-0.0002	0.0000	0.0000;
	440	2	0	0	0	0	0	1.03858093	-3.64086608	220	4	1.1	0.9	1.0000	-0.0000	0.0000	0.0000;
	441	1	-0	0	0.199768	27.888516	0	1.07040503	-15.9349812	380	10	1.1	0.9	1.0476	0.0017	0.0000	0.0000;
	442	2	0	0	0	0	0	1.06194948	-3.69569331	220	4	1.1	0.9	1.0000	0.0004	0.0000	0.0000;
	444	1	0	-0	0	2.45	0	1.05941257	-11.1625196	220	5	1.1	0.9	1.0255	0.0049	0.0000	0.0000;
	445	1	36.74	10.3	0	8.1	0	1.06473514	-10.1231163	220	4	1.1	0.9	1.0153	0.0003	0.0000	0.0000;
	449	1	0	0	0	29.42	0	1.02408938	-2.7748531	380	5	1.1	0.9	1.0043	-0.0000	0.0000	0.0000;
	453	2	0	0	0	0	0	1.0661751	-1.09495106	380	5	1.1	0.9	1.0000	-0.0000	0.0000	0.0000;
	455	1	274.32	5.66	0	13.24	0	1.0685495	-16.8951049	220	5	1.1	0.9	1.0524	0.0063	0.0000	0.0000;
	472	1	336.2	131.6	0	64.01	0	1.08318297	-10.5081439	150	8	1.1	0.9	1.0195	0.0049	0.0000	0.0000;
	473	1	-22.95	-3.72	0	14.34	0	1.06934793	-4.65753959	220	4	1.1	0.9	1.0015	-0.0037	0.0000	0.0000;
	477	1	0	0	0	70.37	0	1.07606499	-6.63785912	380	4	1.1	0.9	1.0124	-0.0031	0.0000	0.0000;
	481	1	-0	0	0	17.44	0	1.06557414	-13.4439454	220	4	1.1	0.9	1.0312	-0.0001	0.0000	0.0000;
	483	1	57.26	15.6	0	3.43	0	1.08932611	-7.26551762	220	4	1.1	0.9	1.0032	0.0004	0.0000	0.0000;
	486	1	7.01	2	0	0.44	0	1.06522912	-10.4646949	150	8	1.1	0.9	1.0195	0.0046	0.0000	0.0000;
	489	2	0	0	0	0	0	1.06321195	-5.36967405	220	4	1.1	0.9	1.0033	0.0000	0.0000	0.0000;
	490	1	20.52	4	0	2.77	0	1.05760537	-16.822664	220	5	1.1	0.9	1.0337	-0.0008	0.0000	0.0000;
	496	1	-0	-0	0	10.04	0	1.07009247	-5.30981984	150	8	1.1	0.9	1.0159	0.0029	0.0000	0.0000;
	500	1	144.4	35.5	0	7.66	0	1.08110532	-6.43448287	220	5	1.1	0.9	1.0097	0.0020	0.0000	0.0000;
	502	1	-0	0	0	1.96	0	1.07672822	-2.47923403	220	5	1.1	0.9	1.0001	0.0000	0.0000	0.0000;
	506	1	-0	0	0	0.4	0	1.08275242	-0.930834892	380	5	1.1	0.9	1.0001	0.0000	0.0000	0.0000;
	509	1	77.29	7	0	17.6	0	1.08590868	-15.3345634	220	4	1.1	0.9	1.0364	0.0007	0.0000	0.0000;
	513	1	57.46	17.1	0	1.61	0	1.07215858	-3.31840938	220	5	1.1	0.9	1.0041	0.0009	0.0000	0.0000;
	516	2	0	0	0	0	0	1.09245657	-16.1972228	220	5	1.1	0.9	1.0400	0.0000	0.0000	0.0000;
	519	1	207.2	9.4	0	8.77	0	1.07875089	-8.85438711	220	4	1.1	0.9	1.0174	-0.0015	0.0000	0.0000;
	520	1	118.5	20.4	0	2.57	0	1.09449757	-7.58229461	220	5	1.1	0.9	1.0109	0.0003	0.0000	0.0000;
	523	1	189.9	74.7	0	26.2	0	1.07740139	-11.1612865	150	8	1.1	0.9	1.0284	0.0062	0.0000	0.0000;
	527	1	277.7	45.4	0	0.7	0	1.06435598	-5.06604401	220	4	1.1	0.9	1.0016	0.0001	0.0000	0.0000;
	536	1	87.8	-1.4	0.079073	36.047349	0	1.08922944	-12.2332083	380	10	1.1	0.9	1.0300	-0.0006	0.0000	0.0000;
	539	1	57.96	18.9	0	14.91	0	1.0635423	-11.2680242	150	8	1.1	0.9	1.0245	0.0051	0.0000	0.0000;
	544	1	79.69	39.6	0	18.83	0	1.07225852	-15.6665511	380	10	1.1	0.9	1.0455	0.0015	0.0000	0.0000;
	548	1	30.93	8.9	0	0.45	0	1.04345663	-11.659672	110	8	1.1	0.9	1.0272	0.0020	0.0000	0.0000;
	549	1	0	-0	0	5.15	0	1.09999745	-4.02145666	220	5	1.1	0.9	1.0032	-0.0079	0.0023	0.0000;
	550	1	0	-0	0	10	0	1.06542499	-9.15796587	220	4	1.1	0.9	1.0139	-0.0032	0.0000	0.0000;
	552	1	180.8	90.8	0	2.42	0	0.992909203	-9.18801553	150	10	1.1	0.9	1.0241	0.0059	0.0000	0.0000;
	554	1	0	-0	0	1.97	0	1.06876209	-13.0938328	220	5	1.1	0.9	1.0294	0.0049	0.0000	0.0000;
	556	1	16.52	9	0	1.17	0	1.05830902	-16.6208111	220	5	1.1	0.9	1.0324	-0.0009	0.0000	0.0000;
	558	1	-0.18	-3.57	0	0	0	1.06091463	-1.62509798	150	8	1.1	0.9	1.0029	0.0004	0.0000	0.0000;
	559	1	42.25	16.6	0	0	0	1.06473298	-12.0278364	150	8	1.1	0.9	1.0262	0.0059	0.0000	0.0000;
	561	1	0	-0	0	0.32	0	1.09047805	-2.9628867	220	5	1.1	0.9	1.0047	0.0001	0.0000	0.0000;
	564	2	0	0	0	0	0	1.0973328	-28.342227	220	5	1.1	0.9	1.0766	-0.0392	0.0000	0.0000;
	575	1	0	-0	0	0.67	0	1.06810222	-10.7766402	220	5	1.1	0.9	1.0232	0.0032	0.0000	0.0000;
	577	1	-0.13	-1	0	0	0	1.04070515	-3.50202783	220	8	1.1	0.9	1.0005	0.0020	0.0000	0.0000;
	579	1	17.32	6.6	0	16.52	0	1.08561709	-7.79798762	380	4	1.1	0.9	1.0150	0.0006	0.0000	0.0000;
	583	2	0	0	0	0	0	1.09144742	-4.44278096	220	5	1.1	0.9	1.0000	0.0004	0.0000	0.0000;
	585	1	21.12	8.3	0	4.26	0	1.07481975	-12.4686362	150	8	1.1	0.9	1.0236	0.0012	0.0000	0.0000;
	593	1	-0	0	0	29.2	0	1.09259662	-1.7765687	380	8	1.1	0.9	1.0019	0.0000	0.0000	0.0000;
	594	1	67.57	17	0	5.75	0	1.06016957	-1.2632979	220	5	1.1	0.9	1.0128	0.0026	0.0000	0.0000;
	595	1	47.55	5.3	0	7.59	0	1.07863229	-9.36464558	220	4	1.1	0.9	1.0210	-0.0015	0.0000	0.0000;
	597	1	33.34	15.7	0	64.15	0	1.09702919	-8.31632636	380	4	1.1	0.9	1.0175	-0.0049	0.0000	0.0000;
	601	1	140.6	42.6	0	5.71	0	1.09171958	-6.55611362	220	5	1.1	0.9	1.0097	0.0019	0.0000	0.0000;
	602	1	110.8	-8.8	0	3.15	0	1.06564541	-12.5409338	220	4	1.1	0.9	1.0260	-0.0004	0.0000	0.0000;
	604	1	33.24	4.4	0	24.54	0	1.02569408	-8.09685832	380	5	1.1	0.9	1.0217	-0.0003	0.0000	0.0000;
	608	1	150.9	10.4	0	4.77	0	1.09616187	-7.82796997	220	5	1.1	0.9	1.0127	-0.0135	0.0000	0.0000;
	609	1	-0	-0	0	5.67	0	1.06857957	-8.1741205	220	5	1.1	0.9	1.0191	0.0056	0.0000	0.0000;
	610	1	-0	0	0	0.91	0	1.02248543	-19.3619926	150	10	1.1	0.9	1.0553	0.0015	0.0000	0.0000;
	615	2	0	0	0	0	0	1.09761134	-3.57779341	220	5	1.1	0.9	0.9927	-0.0000	0.0000	0.0000;
	616	2	0	0	0	0	0	1.1	-4.95573072	220	5	1.1	0.9	1.0005	-0.0000	14.7110	0.0000;
	618	2	0	0	0	0	0	1.09399144	-4.84619633	380	4	1.1	0.9	1.0057	0.0000	0.0000	0.0000;
	619	1	72.88	14.4	0	2.96	0	1.09427835	-16.7633845	220	5	1.1	0.9	1.0384	0.0023	0.0000	0.0000;
	621	1	21.42	8.1	0	7.38	0	1.07194296	-11.2677817	220	4	1.1	0.9	1.0310	0.0018	0.0000	0.0000;
	628	2	0	0	0	0	0	0.999296698	-5.06852077	220	10	1.1	0.9	1.0000	0.0000	0.0000	0.0000;
	639	2	0	0	0	0	0	1.09665626	-19.7474668	220	5	1.1	0.9	1.0647	0.0000	0.0000	0.0000;
	641	1	45.32	18.5	0	0.74	0	1.096255	-1.32500178	220	5	1.1	0.9	1.0050	0.0007	0.0000	0.0000;
	642	2	0	0	0	0	0	1.09453644	-5.47563116	380	4	1.1	0.9	1.0071	0.0000	0.0000	0.0000;
	643	1	15.52	6.3	0	0.6	0	1.06444045	-12.4429001	150	8	1.1	0.9	1.0237	0.0087	0.0000	0.0000;
	649	1	40.94	19.2	0	5.2	0	1.06593475	-13.6736069	220	4	1.1	0.9	1.0320	-0.0002	0.0000	0.0000;
	650	1	17.22	4.4	0	1.71	0	1.04200283	-13.4952179	110	8	1.1	0.9	1.0455	0.0014	0.0000	0.0000;
	656	1	-0.15	-1.93	0	0	0	1.04552244	-8.28166745	220	8	1.1	0.9	1.0233	0.0017	0.0000	0.0000;
	658	1	258.4	66.7	0	5.87	0	1.06095866	-7.69584944	220	5	1.1	0.9	1.0138	0.0072	0.0000	0.0000;
	659	1	-0	-0	0.174507	73.977052	0	1.04120118	-2.155816	380	2	1.1	0.9	1.0005	0.0001	0.0000	0.0000;
...
];

%% generator data
%	bus	Pg	Qg	Qmax	Qmin	Vg	mBase	status	Pmax	Pmin	Pc1	Pc2	Qc1min	Qc1max	Qc2min	Qc2max	ramp_agc	ramp_10	ramp_30	ramp_q	apf	mu_Pmax	mu_Pmin	mu_Qmax	mu_Qmin
mpc.gen = [
	32	16.1999997	-4.55999815	5.91	-4.56	1.03498271	100	1	16.2	0	0	0	0	0	0	0	0	0	0	0	0	0.0125	0.0000	0.0000	0.0018;
	33	3.71431426e-06	2.26998835	2.27	-1.08	1.05645125	100	1	5.38	0	0	0	0	0	0	0	0	0	0	0	0	0.0000	0.0009	0.0003	0.0000;
	39	8.29087921	2.02781107	17.76	-7.14	1.02204115	100	1	40	0	0	0	0	0	0	0	0	0	0	0	0	0.0000	0.0000	0.0000	0.0000;
	51	99.9999989	5.47995796	5.48	-4.19	1.0688178	100	1	100	-192.67	0	0	0	0	0	0	0	0	0	0	0	0.0029	0.0000	0.0001	0.0000;
	124	333.330001	-152.193939	440.32	-172.59	1.07025039	100	1	1000	333.33	0	0	0	0	0	0	0	0	0	0	0	0.0000	0.0035	0.0000	0.0000;
	150	0.139307832	-5.06716921	77.09	-22.54	1.0810896	100	1	160	0	0	0	0	0	0	0	0	0	0	0	0	0.0000	0.0000	0.0000	0.0000;
	179	99.9999994	-51.7199918	52.64	-51.72	1.09230351	100	1	100	-238.93	0	0	0	0	0	0	0	0	0	0	0	0.0060	0.0000	0.0000	0.0004;
	194	293.122001	58.9956985	130.19	-53.53	1.08275332	100	1	300	100	0	0	0	0	0	0	0	0	0	0	0	0.0000	0.0000	0.0000	0.0000;
	201	5.36999959	-1.06999385	2.27	-1.07	1.08073499	100	1	5.37	0	0	0	0	0	0	0	0	0	0	0	0	0.0079	0.0000	0.0000	0.0005;
	221	99.9999664	-65.1590335	183.92	-65.3	1.04083141	100	1	100	-207.18	0	0	0	0	0	0	0	0	0	0	0	0.0001	0.0000	0.0000	0.0000;
	299	1539.55648	36.3636682	721.25	-258.71	1.1	100	1	1600	533.33	0	0	0	0	0	0	0	0	0	0	0	0.0000	0.0000	0.0000	0.0000;
	338	4.01389087	-2.28089568	55.54	-19.16	1.0992555	100	1	120	0	0	0	0	0	0	0	0	0	0	0	0	0.0000	0.0000	0.0000	0.0000;
	352	831.544275	4.76070486	926.35	-297.68	1.01938697	100	1	2000	666.67	0	0	0	0	0	0	0	0	0	0	0	0.0000	0.0000	0.0000	0.0000;
	389	29.4145327	0.147235017	56.73	-17.84	1.03102888	100	1	120	0	0	0	0	0	0	0	0	0	0	0	0	0.0000	0.0000	0.0000	0.0000;
	413	35.8489582	1.46777579	124.12	-49.84	1.07837454	100	1	280	0	0	0	0	0	0	0	0	0	0	0	0	0.0000	0.0000	0.0000	0.0000;
	440	0.0107251823	0.0362966043	55.73	-19.01	1.03858093	100	1	120	0	0	0	0	0	0	0	0	0	0	0	0	0.0000	0.0000	0.0000	0.0000;
	442	84.7731725	1.94999075	1.95	-0.93	1.06194948	100	1	100	-53.8	0	0	0	0	0	0	0	0	0	0	0	0.0000	0.0000	0.0004	0.0000;
	453	291.021356	-27.9682528	257.23	-74.4	1.0661751	100	1	540	0	0	0	0	0	0	0	0	0	0	0	0	0.0000	0.0000	0.0000	0.0000;
	489	99.999999	1.81866719	6.28	-4.82	1.06321195	100	1	100	-143.2	0	0	0	0	0	0	0	0	0	0	0	0.0033	0.0000	0.0000	0.0000;
	516	600	170.46697	261.79	-106.67	1.09245657	100	1	600	200	0	0	0	0	0	0	0	0	0	0	0	0.0400	0.0000	0.0000	0.0000;
	564	100	-19.3499999	18.47	-19.35	1.0973328	100	1	100	-68.89	0	0	0	0	0	0	0	0	0	0	0	0.0766	0.0000	0.0000	0.0392;
	583	76.3612653	17.8799908	17.88	-7.03	1.09144742	100	1	100	-360	0	0	0	0	0	0	0	0	0	0	0	0.0000	0.0000	0.0004	0.0000;
	615	4.50903807e-07	-0.954801782	17.09	-7.79	1.09761134	100	1	40	0	0	0	0	0	0	0	0	0	0	0	0	0.0000	0.0073	0.0000	0.0000;
	616	479.999994	46.4248626	217.9	-81.16	1.1	100	1	480	160	0	0	0	0	0	0	0	0	0	0	0	0.0005	0.0000	0.0000	0.0000;
	618	799.999999	161.104754	351.18	-139.11	1.09399144	100	1	800	266.67	0	0	0	0	0	0	0	0	0	0	0	0.0057	0.0000	0.0000	0.0000;
	628	8.84210186	64.9566982	78.79	-31.69	0.999296698	100	1	180	0	0	0	0	0	0	0	0	0	0	0	0	0.0000	0.0000	0.0000	0.0000;
	639	99.9999999	97.233512	135.52	-38.9	1.09665626	100	1	100	-61.6	0	0	0	0	0	0	0	0	0	0	0	0.0647	0.0000	0.0000	0.0000;
	642	276.09	0.921036738	90.13	-93.03	1.09453644	100	1	276.09	0	0	0	0	0	0	0	0	0	0	0	0	0.0071	0.0000	0.0000	0.0000;
	682	43.5090024	-11.0599898	38.77	-11.06	1.08759548	100	1	80	0	0	0	0	0	0	0	0	0	0	0	0	0.0000	0.0000	0.0000	0.0003;
	686	-12.4677112	-8.94112853	34.75	-34.26	1.06968145	100	1	100	-28.86	0	0	0	0	0	0	0	0	0	0	0	0.0000	0.0000	0.0000	0.0000;
	698	100	-22.8763151	129.94	-53.91	0.998340059	100	1	300	100	0	0	0	0	0	0	0	0	0	0	0	0.0000	0.0077	0.0000	0.0000;
	709	65.2999993	-20.8299988	22.23	-20.83	1.09335493	100	1	65.3	0	0	0	0	0	0	0	0	0	0	0	0	0.0050	0.0000	0.0000	0.0027;
	739	396.685986	-93.4499954	212.97	-93.45	1.07460174	100	1	500	166.67	0	0	0	0	0	0	0	0	0	0	0	0.0000	0.0000	0.0000	0.0007;
	749	28.5398174	-14.2976241	105.69	-43.84	1.07809434	100	1	240	0	0	0	0	0	0	0	0	0	0	0	0	0.0000	0.0000	0.0000	0.0000;
	751	141.472493	6.7687636	136.94	-47.24	1.06087291	100	1	300	0	0	0	0	0	0	0	0	0	0	0	0	0.0000	0.0000	0.0000	0.0000;
	757	120	51.2999951	51.3	-23.41	1.05400769	100	1	120	0	0	0	0	0	0	0	0	0	0	0	0	0.0131	0.0000	0.0007	0.0000;
	776	99.9999991	14.6835417	18.16	-6.73	1.09098673	100	1	100	-148.53	0	0	0	0	0	0	0	0	0	0	0	0.0036	0.0000	0.0000	0.0000;
	778	0.0127031389	-2.50336561	12.37	-9.36	1.09953836	100	1	33.58	0	0	0	0	0	0	0	0	0	0	0	0	0.0000	0.0000	0.0000	0.0000;
	780	79.9999998	19.7177946	37.43	-12.32	1.03963611	100	1	80	0	0	0	0	0	0	0	0	0	0	0	0	0.0164	0.0000	0.0000	0.0000;
	795	79.9999737	-0.298189942	36.75	-13.04	1.1	100	1	80	0	0	0	0	0	0	0	0	0	0	0	0	0.0001	0.0000	0.0000	0.0000;
	803	50.1872391	1.39125026	74.03	-25.54	1.09869941	100	1	100	-118.93	0	0	0	0	0	0	0	0	0	0	0	0.0000	0.0000	0.0000	0.0000;
	807	1474.03392	44.916423	864.47	-360.97	1.0993676	100	1	2000	666.67	0	0	0	0	0	0	0	0	0	0	0	0.0000	0.0000	0.0000	0.0000;
	823	944.235394	22.1398405	926.68	-298.31	1.02197445	100	1	2000	666.67	0	0	0	0	0	0	0	0	0	0	0	0.0000	0.0000	0.0000	0.0000;
	849	2.17113347e-05	-4.9099255	6.45	-4.91	1.07887695	100	1	17.57	0	0	0	0	0	0	0	0	0	0	0	0	0.0000	0.0002	0.0000	0.0000;
	851	199.999995	96.6399627	96.64	-27.81	1.09984057	100	1	200	0	0	0	0	0	0	0	0	0	0	0	0	0.0007	0.0000	0.0001	0.0000;
	858	473.693043	88.016001	440.67	-172.15	1.03993315	100	1	1000	333.33	0	0	0	0	0	0	0	0	0	0	0	0.0000	0.0000	0.0000	0.0000;
	891	2400	575.99689	1097.41	-373.91	1.08440123	100	1	2400	800	0	0	0	0	0	0	0	0	0	0	0	0.0103	0.0000	0.0000	0.0000;
	913	1700	645.157156	772.11	-269.94	1.05840505	100	1	1700	566.67	0	0	0	0	0	0	0	0	0	0	0	0.0020	0.0000	0.0000	0.0000;
	916	3.07601509e-05	-12.510312	134.45	-49.76	1.04144631	100	1	300	0	0	0	0	0	0	0	0	0	0	0	0	0.0000	0.0001	0.0000	0.0000;
	930	330.819637	-124.471032	406.66	-144.75	1.07759704	100	1	900	300	0	0	0	0	0	0	0	0	0	0	0	0.0000	0.0000	0.0000	0.0000;
	972	666.670001	118.987154	934.73	-291.52	1.06133546	100	1	2000	666.67	0	0	0	0	0	0	0	0	0	0	0	0.0000	0.0054	0.0000	0.0000;
	976	107.83	36.0199784	36.02	-35.35	1.09402535	100	1	107.83	0	0	0	0	0	0	0	0	0	0	0	0	0.0073	0.0000	0.0002	0.0000;
	1001	120	55.0199814	55.02	-19.81	1.09111677	100	1	120	0	0	0	0	0	0	0	0	0	0	0	0	0.0406	0.0000	0.0002	0.0000;
	1002	200	89.5499601	89.55	-35.15	1.08840075	100	1	200	0	0	0	0	0	0	0	0	0	0	0	0	0.0246	0.0000	0.0001	0.0000;
	1021	99.9999985	1.90747643	58.34	-16.23	1.06487152	100	1	100	-239.07	0	0	0	0	0	0	0	0	0	0	0	0.0022	0.0000	0.0000	0.0000;
	1030	235.759018	35.6143446	71.66	-27.89	1.02871821	100	1	400	100	0	0	0	0	0	0	0	0	0	0	0	0.0000	0.0000	0.0000	0.0000;
	1036	100	-10.4478601	137.39	-46.45	1.04551659	100	1	300	100	0	0	0	0	0	0	0	0	0	0	0	0.0000	0.0066	0.0000	0.0000;
	1043	300.000063	0.15723713	387.88	-163.4	1.07018044	100	1	900	300	0	0	0	0	0	0	0	0	0	0	0	0.0000	0.0001	0.0000	0.0000;
	1083	82.6994198	13.1993991	54.91	-19.88	1.099152	100	1	120	0	0	0	0	0	0	0	0	0	0	0	0	0.0000	0.0000	0.0000	0.0000;
	1093	1199.99993	145.292834	550.69	-185.15	1.07134066	100	1	1200	400	0	0	0	0	0	0	0	0	0	0	0	0.0000	0.0000	0.0000	0.0000;
	1100	0.096972761	1.50286923e-05	36.8	-13.01	1.08835313	100	1	80	0	0	0	0	0	0	0	0	0	0	0	0	0.0000	0.0000	0.0000	0.0000;
	1102	99.9999329	38.0472923	38.05	-11.59	1.07834396	100	1	100	-165.54	0	0	0	0	0	0	0	0	0	0	0	0.0000	0.0000	0.0000	0.0000;
	1121	129.372608	-23.2650525	158.2	-62.81	1.04675116	100	1	360	0	0	0	0	0	0	0	0	0	0	0	0	0.0000	0.0000	0.0000	0.0000;
	1173	-18.3196467	-0.879984558	1.85	-0.88	1.06416404	100	1	100	-166.27	0	0	0	0	0	0	0	0	0	0	0	0.0000	0.0000	0.0000	0.0002;
	1174	35.6891739	1.11505105	18.61	-6.28	1.0218585	100	1	40	0	0	0	0	0	0	0	0	0	0	0	0	0.0000	0.0000	0.0000	0.0000;
	1175	200.000005	16.4342256	108.35	-39.12	1.07348137	100	1	700	200	0	0	0	0	0	0	0	0	0	0	0	0.0000	0.0007	0.0000	0.0000;
	1237	1064.02983	93.7436108	906.61	-319.44	1.07123431	100	1	2000	666.67	0	0	0	0	0	0	0	0	0	0	0	0.0000	0.0000	0.0000	0.0000;
	1241	65.6299943	-20.9799944	22.29	-20.98	1.04044574	100	1	65.63	0	0	0	0	0	0	0	0	0	0	0	0	0.0006	0.0000	0.0000	0.0006;
	1251	888.545787	96.0711599	550.69	-185.15	1.07115546	100	1	1200	400	0	0	0	0	0	0	0	0	0	0	0	0.0000	0.0000	0.0000	0.0000;
	1271	60.8435825	-6.18002101	32.54	-32.11	1.06360003	100	1	100	-134	0	0	0	0	0	0	0	0	0	0	0	0.0000	0.0000	0.0000	0.0000;
	1295	99.9999805	34.1403997	36.92	-12.88	1.09933571	100	1	100	-165.47	0	0	0	0	0	0	0	0	0	0	0	0.0002	0.0000	0.0000	0.0000;
	1341	120	57.0299989	57.03	-17.62	1.0807281	100	1	120	0	0	0	0	0	0	0	0	0	0	0	0	0.0135	0.0000	0.0029	0.0000;
	1354	99.999994	38.0798658	38.08	-11.73	1.07665636	100	1	100	-328.67	0	0	0	0	0	0	0	0	0	0	0	0.0006	0.0000	0.0000	0.0000;
	1391	22.3703926	-2.42094329	18.74	-6.17	1.03839231	100	1	40	0	0	0	0	0	0	0	0	0	0	0	0	0.0000	0.0000	0.0000	0.0000;
	1399	99.9999998	-10.1999992	11.64	-10.2	1.09040643	100	1	100	-232.8	0	0	0	0	0	0	0	0	0	0	0	0.0176	0.0000	0.0000	0.0039;
	1409	800	-151.759885	338.66	-151.76	1.06556129	100	1	800	266.67	0	0	0	0	0	0	0	0	0	0	0	0.0316	0.0000	0.0000	0.0000;
	1422	36.1966612	11.9808868	18.09	-6.79	1.0992733	100	1	100	-134.67	0	0	0	0	0	0	0	0	0	0	0	0.0000	0.0000	0.0000	0.0000;
	1436	1.66331149e-06	-12.0899574	37.72	-12.09	1.09674844	100	1	80	0	0	0	0	0	0	0	0	0	0	0	0	0.0000	0.0020	0.0000	0.0001;
	1458	1097.14046	-330.779998	895.23	-330.78	1.07483999	100	1	2000	666.67	0	0	0	0	0	0	0	0	0	0	0	0.0000	0.0000	0.0000	0.0014;
	1475	736.992456	-139.021781	394.45	-157	1.06791759	100	1	900	300	0	0	0	0	0	0	0	0	0	0	0	0.0000	0.0000	0.0000	0.0000;
	1478	42.8258977	1.68296847	36.4	-13.44	1.09056989	100	1	80	0	0	0	0	0	0	0	0	0	0	0	0	0.0000	0.0000	0.0000	0.0000;
	1498	5.30999929	-1.05999964	2.25	-1.06	1.09347921	100	1	5.31	0	0	0	0	0	0	0	0	0	0	0	0	0.0047	0.0000	0.0000	0.0091;
	1570	66.6700056	-29.4899984	93.16	-29.49	1.08561162	100	1	200	66.67	0	0	0	0	0	0	0	0	0	0	0	0.0000	0.0006	0.0000	0.0021;
	1604	35.8898294	6.85560327	37.66	-12.17	1.07689294	100	1	80	0	0	0	0	0	0	0	0	0	0	0	0	0.0000	0.0000	0.0000	0.0000;
	1618	99.999996	-20.0699986	21.27	-20.07	1.09693787	100	1	100	-182.13	0	0	0	0	0	0	0	0	0	0	0	0.0008	0.0000	0.0000	0.0023;
	1642	79.9999971	37.7399839	37.74	-12.11	1.03809322	100	1	80	0	0	0	0	0	0	0	0	0	0	0	0	0.0011	0.0000	0.0002	0.0000;
	1680	1809.38314	47.2422758	928.89	-296.1	1.0220392	100	1	2000	666.67	0	0	0	0	0	0	0	0	0	0	0	0.0000	0.0000	0.0000	0.0000;
	1685	22.6289093	5.55959296	57.41	-17.22	1.02211186	100	1	120	0	0	0	0	0	0	0	0	0	0	0	0	0.0000	0.0000	0.0000	0.0000;
	1697	99.9999995	-31.2373819	31.94	-31.24	1.09326866	100	1	100	-252	0	0	0	0	0	0	0	0	0	0	0	0.0063	0.0000	0.0000	0.0000;
	1708	999.999999	167.170084	439.37	-173.3	1.07270255	100	1	1000	333.33	0	0	0	0	0	0	0	0	0	0	0	0.0057	0.0000	0.0000	0.0000;
	1721	5.61948742	-2.1534775	18.52	-6.39	1.08105339	100	1	40	0	0	0	0	0	0	0	0	0	0	0	0	0.0000	0.0000	0.0000	0.0000;
	1747	899.999998	305.2041	387.67	-163.73	1.09304881	100	1	900	300	0	0	0	0	0	0	0	0	0	0	0	0.0018	0.0000	0.0000	0.0000;
	1754	41.0599997	16.9899975	16.99	-7.92	1.05718591	100	1	41.06	0	0	0	0	0	0	0	0	0	0	0	0	0.0124	0.0000	0.0013	0.0000;
	1788	600	131.587484	272.25	-94.92	1.04977811	100	1	600	200	0	0	0	0	0	0	0	0	0	0	0	0.0176	0.0000	0.0000	0.0000;
	1793	99.999994	-15.1826747	34.64	-15.2	1.06099821	100	1	100	-120.4	0	0	0	0	0	0	0	0	0	0	0	0.0005	0.0000	0.0000	0.0000;
	1794	742.888416	-18.9388856	926.35	-297.68	1.01795726	100	1	2000	666.67	0	0	0	0	0	0	0	0	0	0	0	0.0000	0.0000	0.0000	0.0000;
	1808	37.5895306	13.0408444	111.23	-38.16	1.08332976	100	1	100	-0.8	0	0	0	0	0	0	0	0	0	0	0	0.0000	0.0000	0.0000	0.0000;
	1850	32.969999	11.5199963	11.52	-10.09	1.06498029	100	1	32.97	0	0	0	0	0	0	0	0	0	0	0	0	0.0032	0.0000	0.0009	0.0000;
	1851	1.66326577e-06	-8.88996154	11.76	-8.89	1.09676061	100	1	31.92	0	0	0	0	0	0	0	0	0	0	0	0	0.0000	0.0020	0.0000	0.0001;
	1852	99.9999905	53.6368871	58.16	-16.52	1.09688024	100	1	100	-322.4	0	0	0	0	0	0	0	0	0	0	0	0.0003	0.0000	0.0000	0.0000;
	1888	459.045823	209.065256	396.02	-155.83	1.07211249	100	1	912.78	312.78	0	0	0	0	0	0	0	0	0	0	0	0.0000	0.0000	0.0000	0.0000;
	1890	533.330001	69.679759	686.73	-294.62	1.07375684	100	1	1600	533.33	0	0	0	0	0	0	0	0	0	0	0	0.0000	0.0034	0.0000	0.0000;
	1898	2.68658234	-51.2499981	133.11	-51.25	1.08479188	100	1	300	0	0	0	0	0	0	0	0	0	0	0	0	0.0000	0.0000	0.0000	0.0017;
	1909	7.96676696	-11.0999109	38.67	-11.1	1.04457373	100	1	100	-41.57	0	0	0	0	0	0	0	0	0	0	0	0.0000	0.0000	0.0000	0.0000;
	1914	108.999671	0.275930425	160.36	-150.95	1.0958425	100	1	472.16	39.35	0	0	0	0	0	0	0	0	0	0	0	0.0000	0.0000	0.0000	0.0000;
	1947	99.9999995	2.04999268	2.05	-0.97	1.09866281	100	1	100	-22.7	0	0	0	0	0	0	0	0	0	0	0	0.0070	0.0000	0.0005	0.0000;
	1959	4.50906074e-07	-1.64853761e-06	18.14	-6.75	1.09761134	100	1	40	0	0	0	0	0	0	0	0	0	0	0	0	0.0000	0.0073	0.0000	0.0000;
	1999	180	-30.0699996	80.51	-30.07	1.09994254	100	1	180	0	0	0	0	0	0	0	0	0	0	0	0	0.0086	0.0000	0.0000	0.0078;
	2030	600	115.532132	257	-110.85	1.1	100	1	600	200	0	0	0	0	0	0	0	0	0	0	0	0.0090	0.0000	0.0000	0.0000;
	2035	584.611857	112.873341	441.85	-171.27	1.04147775	100	1	1000	333.33	0	0	0	0	0	0	0	0	0	0	0	0.0000	0.0000	0.0000	0.0000;
	2050	666.670001	150.696362	962.2	-263.65	1.06862342	100	1	2000	666.67	0	0	0	0	0	0	0	0	0	0	0	0.0000	0.0046	0.0000	0.0000;
	2085	199.999999	-36.1897017	88.39	-36.19	1.03253667	100	1	200	0	0	0	0	0	0	0	0	0	0	0	0	0.0030	0.0000	0.0000	0.0000;
	2091	6.23752185e-05	-0.102741062	17.88	-7.04	1.03869626	100	1	40	0	0	0	0	0	0	0	0	0	0	0	0	0.0000	0.0001	0.0000	0.0000;
	2096	1199.99997	-136.816876	522.74	-212.37	1.0874461	100	1	1200	400	0	0	0	0	0	0	0	0	0	0	0	0.0001	0.0000	0.0000	0.0000;
	2107	1500	661.899976	661.9	-257.62	1.06532662	100	1	1500	500	0	0	0	0	0	0	0	0	0	0	0	0.0017	0.0000	0.0001	0.0000;
	2150	410.941294	59.2772009	266.17	-101.5	1.1	100	1	600	200	0	0	0	0	0	0	0	0	0	0	0	0.0000	0.0000	0.0000	0.0000;
	2177	99.9999952	-16.2599991	58.35	-16.26	1.08490952	100	1	100	-161.73	0	0	0	0	0	0	0	0	0	0	0	0.0007	0.0000	0.0000	0.0035;
	2193	16.1199992	-2.55997844	7.47	-2.56	1.05940511	100	1	16.12	0	0	0	0	0	0	0	0	0	0	0	0	0.0040	0.0000	0.0000	0.0002;
	2197	99.9999979	-14.7399571	19.51	-14.74	1.0727219	100	1	100	-71.05	0	0	0	0	0	0	0	0	0	0	0	0.0015	0.0000	0.0000	0.0001;
	2206	100	10.6049247	137.29	-46.58	1.02730974	100	1	300	100	0	0	0	0	0	0	0	0	0	0	0	0.0000	0.0077	0.0000	0.0000;
	2225	-52.9567437	-1.03999491	2.27	-1.04	1.07062299	100	1	100	-111.33	0	0	0	0	0	0	0	0	0	0	0	0.0000	0.0000	0.0000	0.0006;
	2236	20.5375144	-1.0699921	2.23	-1.07	1.06611327	100	1	100	-51.26	0	0	0	0	0	0	0	0	0	0	0	0.0000	0.0000	0.0000	0.0004;
	2267	470.948316	160.829738	228.16	-78.83	1.05113039	100	1	500	166.67	0	0	0	0	0	0	0	0	0	0	0	0.0000	0.0000	0.0000	0.0000;
	2276	0.0383729575	-0.0587586536	41.67	-36.5	1.09998988	100	1	119.3	0	0	0	0	0	0	0	0	0	0	0	0	0.0000	0.0000	0.0000	0.0000;
	2291	84.1969365	-28.9299988	95.69	-28.93	1.09224633	100	1	200	0	0	0	0	0	0	0	0	0	0	0	0	0.0000	0.0000	0.0000	0.0028;
	2335	467.196589	114.404314	273.49	-94.1	1.06794066	100	1	600	200	0	0	0	0	0	0	0	0	0	0	0	0.0000	0.0000	0.0000	0.0000;
	2359	79.9999996	21.44358	34.35	-15.5	1.07397046	100	1	80	0	0	0	0	0	0	0	0	0	0	0	0	0.0079	0.0000	0.0000	0.0000;
	2412	26.1247596	-5.20211329	134.54	-136.29	1.05981005	100	1	409.09	0	0	0	0	0	0	0	0	0	0	0	0	0.0000	0.0000	0.0000	0.0000;
	2421	99.9999999	-12.4499996	37.39	-12.45	1.07445846	100	1	100	-427.2	0	0	0	0	0	0	0	0	0	0	0	0.0321	0.0000	0.0000	0.0087;
	2425	99.9999997	20.8479106	54.3	-20.49	1.03217382	100	1	100	-134	0	0	0	0	0	0	0	0	0	0	0	0.0109	0.0000	0.0000	0.0000;
	2426	99.999999	1.45414233	105.34	-99.02	1.09864201	100	1	100	-57.6	0	0	0	0	0	0	0	0	0	0	0	0.0032	0.0000	0.0000	0.0000;
	2446	666.670002	-23.9369008	921.62	-304.73	1.03335746	100	1	2000	666.67	0	0	0	0	0	0	0	0	0	0	0	0.0000	0.0016	0.0000	0.0000;
	2460	79.9999994	36.5929943	38.01	-11.74	1.00855727	100	1	80	0	0	0	0	0	0	0	0	0	0	0	0	0.0059	0.0000	0.0000	0.0000;
	2468	4.09092939	-2.32464164	38.02	-11.81	1.09925334	100	1	80	0	0	0	0	0	0	0	0	0	0	0	0	0.0000	0.0000	0.0000	0.0000;
	2481	79.9999905	0.43569661	39.12	-10.71	1.09414147	100	1	80	0	0	0	0	0	0	0	0	0	0	0	0	0.0003	0.0000	0.0000	0.0000;
	2489	55.0517478	32.9066266	162.4	-61.79	1.08078239	100	1	360	0	0	0	0	0	0	0	0	0	0	0	0	0.0000	0.0000	0.0000	0.0000;
	2517	19.4860631	-3.82492379	78.13	-77.07	1.07020342	100	1	234.52	0	0	0	0	0	0	0	0	0	0	0	0	0.0000	0.0000	0.0000	0.0000;
	2550	0.0217703021	-4.34166615	58.23	-16.49	1.09955306	100	1	120	0	0	0	0	0	0	0	0	0	0	0	0	0.0000	0.0000	0.0000	0.0000;
	2572	286.747109	81.0265334	276.19	-91.63	1.1	100	1	600	200	0	0	0	0	0	0	0	0	0	0	0	0.0000	0.0000	0.0000	0.0000;
	2600	159.999997	0.662113807	76.08	-23.59	1.09987485	100	1	160	0	0	0	0	0	0	0	0	0	0	0	0	0.0010	0.0000	0.0000	0.0000;
	2627	666.670003	-31.7031312	921.52	-304.79	1.03253686	100	1	2000	666.67	0	0	0	0	0	0	0	0	0	0	0	0.0000	0.0010	0.0000	0.0000;
	2642	1634.72897	78.8801263	848.76	-377.67	1.1	100	1	2000	666.67	0	0	0	0	0	0	0	0	0	0	0	0.0000	0.0000	0.0000	0.0000;
	2653	120	-22.7999961	51.94	-22.8	1.05766878	100	1	120	0	0	0	0	0	0	0	0	0	0	0	0	0.0336	0.0000	0.0000	0.0008;
	2658	517.06672	29.6355311	124.68	-59.39	1.09244725	100	1	700	200	0	0	0	0	0	0	0	0	0	0	0	0.0000	0.0000	0.0000	0.0000;
	2660	49.6018099	-1.89227548	79.69	-30.77	1.02071634	100	1	180	0	0	0	0	0	0	0	0	0	0	0	0	0.0000	0.0000	0.0000	0.0000;
	2686	-51.9132295	-69.899971	69.01	-69.9	1.06005908	100	1	100	-97.2	0	0	0	0	0	0	0	0	0	0	0	0.0000	0.0000	0.0000	0.0001;
	2719	196.719974	-0.470446447	70.15	-58.1	1.1	100	1	196.72	0	0	0	0	0	0	0	0	0	0	0	0	0.0001	0.0000	0.0000	0.0000;
	2764	900	-134.499999	416.7	-134.5	1.08898325	100	1	900	300	0	0	0	0	0	0	0	0	0	0	0	0.0166	0.0000	0.0000	0.0032;
	2786	666.670001	113.972938	934.81	-291.47	1.06247095	100	1	2000	666.67	0	0	0	0	0	0	0	0	0	0	0	0.0000	0.0053	0.0000	0.0000;
	2797	69.7160828	22.9156341	88.33	-36.33	1.08835262	100	1	100	-126.8	0	0	0	0	0	0	0	0	0	0	0	0.0000	0.0000	0.0000	0.0000;
	2799	1.86649777e-06	-3.32187636e-05	77.91	-21.66	1.09625803	100	1	160	0	0	0	0	0	0	0	0	0	0	0	0	0.0000	0.0018	0.0000	0.0000;
	2800	1200	46.6590375	525.34	-209.84	1.09495837	100	1	1200	400	0	0	0	0	0	0	0	0	0	0	0	0.0050	0.0000	0.0000	0.0000;
	2816	712.752243	-6.64243447	926.26	-297.74	1.01941453	100	1	2000	666.67	0	0	0	0	0	0	0	0	0	0	0	0.0000	0.0000	0.0000	0.0000;
	2817	79.9999998	16.0536519	34.8	-14.94	1.02091931	100	1	80	0	0	0	0	0	0	0	0	0	0	0	0	0.0172	0.0000	0.0000	0.0000;
	2841	0.0712755003	-11.1001327	55.98	-18.76	1.07614083	100	1	120	0	0	0	0	0	0	0	0	0	0	0	0	0.0000	0.0000	0.0000	0.0000;
	2842	39.996872	7.85361581	18.19	-6.74	1.07691612	100	1	40	0	0	0	0	0	0	0	0	0	0	0	0	0.0000	0.0000	0.0000	0.0000;
	2853	131.100656	-6.84560887	72.02	-27.47	1.02127536	100	1	160	0	0	0	0	0	0	0	0	0	0	0	0	0.0000	0.0000	0.0000	0.0000;
	2872	9.04999784	-2.5399694	3.31	-2.54	1.09012749	100	1	9.05	0	0	0	0	0	0	0	0	0	0	0	0	0.0015	0.0000	0.0000	0.0001;
	2878	214.859989	11.7530827	72.95	-68.71	1.09276305	100	1	214.86	0	0	0	0	0	0	0	0	0	0	0	0	0.0003	0.0000	0.0000	0.0000;
	2886	1.76539079	-15.6337782	57.69	-17.02	1.08950791	100	1	120	0	0	0	0	0	0	0	0	0	0	0	0	0.0000	0.0000	0.0000	0.0000;
	2896	99.9999929	1.51999344	1.52	-0.73	1.04833318	100	1	100	-297.87	0	0	0	0	0	0	0	0	0	0	0	0.0005	0.0000	0.0005	0.0000;
	2902	0.0174393992	-3.16869792	19.19	-5.72	1.0999765	100	1	40	0	0	0	0	0	0	0	0	0	0	0	0	0.0000	0.0000	0.0000	0.0000;
	2930	1.66331172e-06	-12.5399557	37.24	-12.54	1.09672913	100	1	80	0	0	0	0	0	0	0	0	0	0	0	0	0.0000	0.0020	0.0000	0.0001;
	2934	0.00698134714	-5.96956078e-05	2.51	-1.91	1.09953955	100	1	6.83	0	0	0	0	0	0	0	0	0	0	0	0	0.0000	0.0000	0.0000	0.0000;
	2946	99.9999985	1.71214038	1.83	-0.87	1.06492166	100	1	100	-296.13	0	0	0	0	0	0	0	0	0	0	0	0.0021	0.0000	0.0000	0.0000;
	2985	36.4140481	-3.84730221	184.46	-132.67	1.08828737	100	1	493.35	0	0	0	0	0	0	0	0	0	0	0	0	0.0000	0.0000	0.0000	0.0000;
	3018	2.64373084e-06	-6.7974132	89.61	-34.82	1.0964622	100	1	200	0	0	0	0	0	0	0	0	0	0	0	0	0.0000	0.0012	0.0000	0.0000;
	3028	539.641715	103.276408	441.85	-171.27	1.04115067	100	1	1000	333.33	0	0	0	0	0	0	0	0	0	0	0	0.0000	0.0000	0.0000	0.0000;
	3054	400	167.719997	167.72	-77.11	1.03844521	100	1	400	133.33	0	0	0	0	0	0	0	0	0	0	0	0.0346	0.0000	0.0012	0.0000;
	3113	-27.0699979	-20.9899995	22.39	-20.99	1.09563067	100	1	100	-27.07	0	0	0	0	0	0	0	0	0	0	0	0.0000	0.0015	0.0000	0.0066;
	3114	19.8357031	-7.60999886	17.33	-7.61	1.09415364	100	1	40	0	0	0	0	0	0	0	0	0	0	0	0	0.0000	0.0000	0.0000	0.0029;
	3133	20.2991479	-29.8465674	113.97	-35.56	1.08663141	100	1	240	0	0	0	0	0	0	0	0	0	0	0	0	0.0000	0.0000	0.0000	0.0000;
	3134	58.2484367	24.4880232	70.25	-29.33	1.09665972	100	1	100	-181.73	0	0	0	0	0	0	0	0	0	0	0	0.0000	0.0000	0.0000	0.0000;
	3150	99.9999993	-5.09998979	6.66	-5.1	1.0660439	100	1	100	-41.79	0	0	0	0	0	0	0	0	0	0	0	0.0044	0.0000	0.0000	0.0003;
	3157	2.44527573	-5.1295598	6.78	-5.13	1.04105342	100	1	18.41	0	0	0	0	0	0	0	0	0	0	0	0	0.0000	0.0000	0.0000	0.0000;
	3163	111.656922	4.3681698	67.92	-69.02	1.06151527	100	1	206.86	0	0	0	0	0	0	0	0	0	0	0	0	0.0000	0.0000	0.0000	0.0000;
	3183	1.86653587e-06	-5.05782157e-06	53.7	-20.98	1.09625803	100	1	120	0	0	0	0	0	0	0	0	0	0	0	0	0.0000	0.0018	0.0000	0.0000;
	3205	409.90953	82.1487735	243.61	-88.46	1.0589694	100	1	540	0	0	0	0	0	0	0	0	0	0	0	0	0.0000	0.0000	0.0000	0.0000;
	3218	88.3689821	12.7385083	36.79	-13	1.09501267	100	1	100	-143.2	0	0	0	0	0	0	0	0	0	0	0	0.0000	0.0000	0.0000	0.0000;
	3233	393.321099	84.3697861	178.47	-79.11	1.07077157	100	1	420	0	0	0	0	0	0	0	0	0	0	0	0	0.0000	0.0000	0.0000	0.0000;
	3240	-56.3999973	7.66279907	62.23	-51.37	1.08638346	100	1	100	-56.4	0	0	0	0	0	0	0	0	0	0	0	0.0000	0.0012	0.0000	0.0000;
	3291	329.434178	-69.8559182	229	-77.02	1.07102661	100	1	500	166.67	0	0	0	0	0	0	0	0	0	0	0	0.0000	0.0000	0.0000	0.0000;
	3306	333.330001	-24.0828153	439.2	-173.43	1.06658189	100	1	1000	333.33	0	0	0	0	0	0	0	0	0	0	0	0.0000	0.0036	0.0000	0.0000;
	3324	99.9999998	38.1299982	38.13	-11.64	1.08199809	100	1	100	-35.3	0	0	0	0	0	0	0	0	0	0	0	0.0144	0.0000	0.0018	0.0000;
	3334	-60.6699838	34.4099814	34.41	-15.34	1.0579219	100	1	100	-60.67	0	0	0	0	0	0	0	0	0	0	0	0.0000	0.0002	0.0002	0.0000;
	3335	-438.897193	367.50007	99999	-99999	1.06290496	100	1	630	-630	0	0	0	0	0	0	0	0	0	0	0	0.0000	0.0000	0.0000	0.0000;
	3346	79.9999998	37.0999983	37.1	-12.76	1.05110713	100	1	80	0	0	0	0	0	0	0	0	0	0	0	0	0.0133	0.0000	0.0020	0.0000;
	3353	1.11107141e-05	-3.14623317	38.2	-11.61	1.08734352	100	1	80	0	0	0	0	0	0	0	0	0	0	0	0	0.0000	0.0003	0.0000	0.0000;
	3364	1.8664947e-06	-5.82402253e-05	47.19	-41.44	1.09625803	100	1	135.27	0	0	0	0	0	0	0	0	0	0	0	0	0.0000	0.0018	0.0000	0.0000;
	3390	120	54.5899987	54.59	-20.19	1.06866401	100	1	120	0	0	0	0	0	0	0	0	0	0	0	0	0.0225	0.0000	0.0026	0.0000;
	3416	0.136490324	0.108901839	76.43	-34.12	1.0129623	100	1	180	0	0	0	0	0	0	0	0	0	0	0	0	0.0000	0.0000	0.0000	0.0000;
	3422	4.50890595e-07	-2.45525225	58.19	-16.5	1.09761882	100	1	120	0	0	0	0	0	0	0	0	0	0	0	0	0.0000	0.0073	0.0000	0.0000;
	3436	1200	100.252562	550.97	-184.89	1.08956596	100	1	1200	400	0	0	0	0	0	0	0	0	0	0	0	0.0067	0.0000	0.0000	0.0000;
	3492	85.8951065	3.39644756	53.75	-21.08	1.09864027	100	1	100	-494.4	0	0	0	0	0	0	0	0	0	0	0	0.0000	0.0000	0.0000	0.0000;
	3513	838.016137	123.243738	387.88	-163.4	1.07015226	100	1	900	300	0	0	0	0	0	0	0	0	0	0	0	0.0000	0.0000	0.0000	0.0000;
	3565	4.72148512	-10.9699873	38.83	-10.97	1.07667631	100	1	80	0	0	0	0	0	0	0	0	0	0	0	0	0.0000	0.0000	0.0000	0.0003;
	3580	600	127.377144	261.7	-107.36	1.09253274	100	1	600	0	0	0	0	0	0	0	0	0	0	0	0	0.0397	0.0000	0.0000	0.0000;
	3582	99.9999996	-52.0399876	52.83	-52.04	1.08244582	100	1	100	-429.07	0	0	0	0	0	0	0	0	0	0	0	0.0088	0.0000	0.0000	0.0003;
	3584	55.9779079	-0.490535715	19.8	-15.12	1.0639163	100	1	100	-117.87	0	0	0	0	0	0	0	0	0	0	0	0.0000	0.0000	0.0000	0.0000;
	3585	79.9999998	30.2674237	37.43	-12.32	1.03963641	100	1	80	0	0	0	0	0	0	0	0	0	0	0	0	0.0164	0.0000	0.0000	0.0000;
...
];

%% branch data
%	fbus	tbus	r	x	b	rateA	rateB	rateC	ratio	angle	status	angmin	angmax	Pf	Qf	Pt	Qt	mu_Sf	mu_St	mu_angmin	mu_angmax
mpc.branch = [
	5147	3097	0.0006	0.00616	0	823	0	0	0	0	1	-360	360	41.1726	-10.6374	-41.1625	10.7413	0.0000	0.0000	0.0000	0.0000;
	5147	8763	0.0005	0.0074	0	921	0	0	0	0	1	-360	360	-41.1726	29.7287	41.1847	-29.5507	0.0000	0.0000	0.0000	0.0000;
	427	5425	7e-05	0.00057	0	1711	0	0	0	0	1	-360	360	-3.6742	73.0922	3.6774	-73.0663	0.0000	0.0000	0.0000	0.0000;
	427	4704	6e-05	0.00056	0	1514	0	0	0	0	1	-360	360	3.6742	-71.6284	-3.6716	71.6528	0.0000	0.0000	0.0000	0.0000;
	5960	7431	0.003349	0.01656	0	0	0	0	0	0	1	-360	360	-33.1668	4.3581	33.2025	-4.1818	0.0000	0.0000	0.0000	0.0000;
	5960	3186	0.003409	0.016211	0	0	0	0	0	0	1	-360	360	33.1668	-1.4370	-33.1310	1.6070	0.0000	0.0000	0.0000	0.0000;
	4481	7431	0.003479	0.01586	0	0	0	0	0	0	1	-360	360	-32.1928	3.9509	32.2276	-3.7921	0.0000	0.0000	0.0000	0.0000;
	4481	3186	0.003099	0.017969	0	0	0	0	0	0	1	-360	360	32.1928	-1.1143	-32.1621	1.2918	0.0000	0.0000	0.0000	0.0000;
	5205	7833	0.00236	0.01418	0	553	0	0	0	0	1	-360	360	-144.4818	68.6480	145.0036	-65.5124	0.0000	0.0000	0.0000	0.0000;
	5205	7770	0.002169	0.015909	0	514	0	0	0	0	1	-360	360	144.4818	-65.3618	-144.0104	68.8192	0.0000	0.0000	0.0000	0.0000;
	5773	6542	0.00014	0.0012	0	0	0	0	0	0	1	-360	360	123.3826	-17.5289	-123.3633	17.6936	0.0000	0.0000	0.0000	0.0000;
	5773	7840	0.000211	0.001539	0	0	0	0	0	0	1	-360	360	-123.3826	17.9363	123.4115	-17.7249	0.0000	0.0000	0.0000	0.0000;
	5214	6542	0.000401	0.004901	0	0	0	0	0	0	1	-360	360	53.1025	-5.6794	-53.0924	5.8029	0.0000	0.0000	0.0000	0.0000;
	5214	7840	0.000219	0.00151	0	533	0	0	0	0	1	-360	360	-53.1025	6.6752	53.1081	-6.6370	0.0000	0.0000	0.0000	0.0000;
	2971	6069	0.00052	0.00407	0	1481	0	0	0	0	1	-360	360	205.5320	60.8503	-205.2987	-59.0241	0.0000	0.0000	0.0000	0.0000;
	2971	3445	0.00034	0.00502	0	1843	0	0	0	0	1	-360	360	-205.5320	-49.0235	205.6802	51.2123	0.0000	0.0000	0.0000	0.0000;
	7561	6069	0.00065	0.00698	0	1711	0	0	0	0	1	-360	360	235.4887	87.2967	-235.0914	-83.0302	0.0000	0.0000	0.0000	0.0000;
	7561	8825	0.00059	0.00806	0	1678	0	0	0	0	1	-360	360	-235.4887	-66.1015	235.8308	70.7743	0.0000	0.0000	0.0000	0.0000;
	7556	7058	0.00374	0.02095	0	800	0	0	0	0	1	-360	360	7.5727	11.6668	-7.5665	-11.6317	0.0000	0.0000	0.0000	0.0000;
	7556	4324	0.00511	0.019461	0	800	0	0	0	0	1	-360	360	-7.5727	-8.0846	7.5781	8.1052	0.0000	0.0000	0.0000	0.0000;
	132	2962	0.00064	0.00715	0	1481	0	0	0	0	1	-360	360	-126.0026	21.2304	126.0904	-20.2498	0.0000	0.0000	0.0000	0.0000;
	132	4393	0.00089	0.00712	0	1283	0	0	0	0	1	-360	360	126.0026	4.2347	-125.8838	-3.2841	0.0000	0.0000	0.0000	0.0000;
	5044	693	0.00048	0.00555	0	987	0	0	0	0	1	-360	360	-88.1744	-13.0893	88.2067	13.4632	0.0000	0.0000	0.0000	0.0000;
	5044	7860	0.00047	0.00566	0	1086	0	0	0	0	1	-360	360	88.1744	27.2564	-88.1404	-26.8477	0.0000	0.0000	0.0000	0.0000;
	6883	693	0.00046	0.00524	0	1053	0	0	0	0	1	-360	360	-95.4112	-13.6713	95.4474	14.0840	0.0000	0.0000	0.0000	0.0000;
	6883	7860	0.00052	0.00514	0	1053	0	0	0	0	1	-360	360	95.4112	28.2983	-95.3675	-27.8668	0.0000	0.0000	0.0000	0.0000;
	6494	4945	0.00029	0.00298	0	1613	0	0	0	0	1	-360	360	-721.0962	60.7770	722.3875	-47.5075	0.0000	0.0000	0.0000	0.0000;
	6494	6080	0.0003	0.00291	0	1514	0	0	0	0	1	-360	360	721.0962	-51.1336	-719.7631	64.0647	0.0000	0.0000	0.0000	0.0000;
	7146	7388	0.00042	0.02666	0	1185	0	0	0	0	1	-360	360	0.0000	0.0000	0.0000	0.0000	0.0000	0.0000	0.0000	0.0000;
	4735	5239	0.00058	0.00534	0	1876	0	0	0	0	1	-360	360	-136.1142	-100.3282	136.2649	101.7158	0.0000	0.0000	0.0000	0.0000;
	4735	3145	0.00054	0.00589	0	1843	0	0	0	0	1	-360	360	136.1142	115.2826	-135.9581	-113.5795	0.0000	0.0000	0.0000	0.0000;
	3615	8731	0.00036	0.00485	0	0	0	0	0	0	1	-360	360	233.6759	-37.5481	-233.5009	39.9054	0.0000	0.0000	0.0000	0.0000;
	3615	6246	0.00042	0.00415	0	0	0	0	0	0	1	-360	360	-233.6759	53.1178	233.8852	-51.0499	0.0000	0.0000	0.0000	0.0000;
	2549	7829	0.003349	0.02445	0	553	0	0	0	0	1	-360	360	87.6736	-53.0988	-87.3623	55.3709	0.0000	0.0000	0.0000	0.0000;
	2549	4951	0.003281	0.02493	0	553	0	0	0	0	1	-360	360	-87.6736	57.4628	87.9925	-55.0397	0.0000	0.0000	0.0000	0.0000;
	7004	3370	0	0.00046	0	757	0	0	0	0	1	-360	360	0.0000	0.0000	0.0000	0.0000	0.0000	0.0000	0.0000	0.0000;
	8381	4795	0.00053	0.00587	0	1777	0	0	0	0	1	-360	360	-278.4850	22.0449	278.8270	-18.2572	0.0000	0.0000	0.0000	0.0000;
	8381	5562	0.00055	0.00666	0	1711	0	0	0	0	1	-360	360	278.4850	-0.3722	-278.1323	4.6430	0.0000	0.0000	0.0000	0.0000;
	3409	1716	0.00051	0.00614	0	0	0	0	0	0	1	-360	360	252.0617	-35.2459	-251.7750	38.6978	0.0000	0.0000	0.0000	0.0000;
	3409	6246	0.00043	0.00406	0	0	0	0	0	0	1	-360	360	-252.0617	54.1425	252.3097	-51.8005	0.0000	0.0000	0.0000	0.0000;
	1000	6145	0.002211	0.014419	0	438	0	0	0	0	1	-360	360	-18.0474	3.4957	18.0545	-3.4493	0.0000	0.0000	0.0000	0.0000;
	1000	3186	0.002169	0.013349	0	457	0	0	0	0	1	-360	360	18.0474	-1.6069	-18.0406	1.6486	0.0000	0.0000	0.0000	0.0000;
	6060	5289	0.00033	0.00101	0	823	0	0	0	0	1	-360	360	0.0000	97.5962	0.0260	-97.5167	0.0000	0.0000	0.0000	0.0000;
	7965	5289	0.00028	0.00104	0	757	0	0	0	0	1	-360	360	0.0000	96.1950	0.0214	-96.1155	0.0000	0.0000	0.0000	0.0000;
	4363	4507	0.00057	0.0071	0	1613	0	0	0	0	1	-360	360	134.1942	-43.1032	-134.0964	44.3218	0.0000	0.0000	0.0000	0.0000;
	4363	6246	0.00057	0.00697	0	1613	0	0	0	0	1	-360	360	-134.1942	64.7021	134.3035	-63.3656	0.0000	0.0000	0.0000	0.0000;
	425	7526	0.0001	0.00119	0	1810	0	0	0	0	1	-360	360	155.3020	96.3687	-155.2721	-96.0138	0.0000	0.0000	0.0000	0.0000;
	425	5674	0.0001	0.0013	0	1613	0	0	0	0	1	-360	360	-155.3020	-93.3223	155.3313	93.7033	0.0000	0.0000	0.0000	0.0000;
	4799	8581	9e-05	0.00121	0	1514	0	0	0	0	1	-360	360	-175.0973	49.0985	175.1237	-48.7426	0.0000	0.0000	0.0000	0.0000;
	4799	4337	0.0001	0.00134	0	1251	0	0	0	0	1	-360	360	175.0973	-46.1520	-175.0681	46.5427	0.0000	0.0000	0.0000	0.0000;
	4968	2154	0.00039	0.00474	0	1843	0	0	0	0	1	-360	360	121.2217	150.1841	-121.0987	-148.6896	0.0000	0.0000	0.0000	0.0000;
	4968	1747	0.00045	0.00467	0	1448	0	0	0	0	1	-360	360	-121.2217	-130.6082	121.3426	131.8634	0.0000	0.0000	0.0000	0.0000;
	7699	2154	0.00052	0.00567	0	1645	0	0	0	0	1	-360	360	-230.1020	-8.6899	230.3391	11.2754	0.0000	0.0000	0.0000	0.0000;
	7699	1689	0.00054	0.00667	0	1316	0	0	0	0	1	-360	360	230.1020	31.5034	-229.8515	-28.4093	0.0000	0.0000	0.0000	0.0000;
	3097	659	0.00073	0.00905	0	1185	0	0	0	0	1	-360	360	-86.9475	-55.1515	87.0196	56.0459	0.0000	0.0000	0.0000	0.0000;
	9024	4929	0.00192	0.02296	0	889	0	0	0	0	1	-360	360	-154.2335	51.3684	154.6917	-45.8888	0.0000	0.0000	0.0000	0.0000;
	1815	6542	0.01431	0.05899	0	0	0	0	0	0	1	-360	360	24.7794	-28.0558	-24.5980	28.8037	0.0000	0.0000	0.0000	0.0000;
	6542	1445	0.02607	0.07168	0	0	0	0	0	0	1	-360	360	18.3471	33.3212	-18.0138	-32.4048	0.0000	0.0000	0.0000	0.0000;
	6069	6833	0.00054	0.00465	0	1580	0	0	0	0	1	-360	360	281.0623	159.9288	-280.5070	-155.1472	0.0000	0.0000	0.0000	0.0000;
	6069	2268	0.00126	0.01124	0	1613	0	0	0	0	1	-360	360	-210.0536	-102.5481	210.7306	108.5871	0.0000	0.0000	0.0000	0.0000;
	6069	7180	0.00048	0.00527	0	1547	0	0	0	0	1	-360	360	269.5410	93.9350	-269.1564	-89.7127	0.0000	0.0000	0.0000	0.0000;
	6069	6293	0.00082	0.00938	0	1580	0	0	0	0	1	-360	360	-320.1557	-137.8569	321.1354	149.0639	0.0000	0.0000	0.0000	0.0000;
	1968	9192	0.00028	0.003502	0	0	0	0	0	0	1	-360	360	-130.2047	-21.3566	130.2483	21.9021	0.0000	0.0000	0.0000	0.0000;
	1968	3493	0.691467	4.414711	0	0	0	0	0	0	1	-360	360	-0.8684	-0.1431	0.8732	0.1737	0.0000	0.0000	0.0000	0.0000;
	1968	955	0.02004	0.0916	0	0	0	0	0	0	1	-360	360	-0.9605	24.1437	1.0652	-23.6652	0.0000	0.0000	0.0000	0.0000;
	1968	228	0.841911	4.768444	0	0	0	0	0	0	1	-360	360	-1.6002	-0.0963	1.6196	0.2060	0.0000	0.0000	0.0000	0.0000;
	1968	6826	0.026	0.08948	0	0	0	0	0	0	1	-360	360	-43.4548	-32.0583	44.1332	34.3930	0.0000	0.0000	0.0000	0.0000;
	1968	8964	0.002631	0.011889	0	299	0	0	0	0	1	-360	360	283.2113	-5.5428	-281.3223	14.0788	0.0000	0.0000	0.0000	0.0000;
	1968	5776	0.7232	1.944	0	0	0	0	0	0	1	-360	360	-2.1361	-1.0770	2.1731	1.1765	0.0000	0.0000	0.0000	0.0000;
	9192	955	0.156169	0.546756	0	0	0	0	0	0	1	-360	360	0.8916	3.9618	-0.8686	-3.8813	0.0000	0.0000	0.0000	0.0000;
	9192	6826	0.168809	0.580622	0	0	0	0	0	0	1	-360	360	-5.9172	-4.9992	6.0077	5.3103	0.0000	0.0000	0.0000	0.0000;
	9192	8964	0.019222	0.068209	0	0	0	0	0	0	1	-360	360	55.1388	-3.7119	-54.6145	5.5721	0.0000	0.0000	0.0000	0.0000;
	8574	1616	0.00039	0.00386	0	1415	0	0	0	0	1	-360	360	-141.4948	-80.3167	141.5923	81.2816	0.0000	0.0000	0.0000	0.0000;
	8574	1163	0.00096	0.01138	0	1448	0	0	0	0	1	-360	360	-24.2275	21.1164	24.2369	-21.0054	0.0000	0.0000	0.0000	0.0000;
	8574	9064	0.00037	0.00325	0	1415	0	0	0	0	1	-360	360	-141.8821	-78.7313	141.9741	79.5394	0.0000	0.0000	0.0000	0.0000;
	8574	8921	0.00029	0.00339	0	1580	0	0	0	0	1	-360	360	-205.6578	-29.3757	205.7759	30.7573	0.0000	0.0000	0.0000	0.0000;
	3493	2299	0.009458	0.158871	0	0	0	0	0	0	1	-360	360	8.2547	-1.4442	-8.2489	1.5417	0.0000	0.0000	0.0000	0.0000;
	2299	4423	0	0.000222	0	0	0	0	0	0	1	-360	360	-141.6289	-2.4557	141.6289	2.4946	0.0000	0.0000	0.0000	0.0000;
	6826	2299	0.312951	7.130667	0	0	0	0	0	0	1	-360	360	0.0972	0.3720	-0.0968	-0.3632	0.0000	0.0000	0.0000	0.0000;
	7563	2299	0.247649	1.075911	0	0	0	0	0	0	1	-360	360	-1.4898	0.9807	1.4966	-0.9512	0.0000	0.0000	0.0000	0.0000;
	4427	2299	0.06056	0.18612	0	0	0	0	0	0	1	-360	360	-1.8157	-0.6085	1.8176	0.6145	0.0000	0.0000	0.0000	0.0000;
	8335	2299	2.142489	4.347733	0	0	0	0	0	0	1	-360	360	-0.3358	-0.2268	0.3389	0.2332	0.0000	0.0000	0.0000	0.0000;
	5155	2299	0.07132	1.068889	0	0	0	0	0	0	1	-360	360	-0.2127	-0.7106	0.2130	0.7158	0.0000	0.0000	0.0000	0.0000;
	271	2299	0.02268	0.08652	0	0	0	0	0	0	1	-360	360	22.0700	-4.8966	-21.9690	5.2818	0.0000	0.0000	0.0000	0.0000;
	2449	2299	2.007778	4.494222	0	0	0	0	0	0	1	-360	360	0.5581	0.4657	-0.5494	-0.4461	0.0000	0.0000	0.0000	0.0000;
	4665	2299	0.006178	0.028938	0	0	0	0	0	0	1	-360	360	-56.6225	5.3668	56.7974	-4.5475	0.0000	0.0000	0.0000	0.0000;
	4495	2299	0.027711	0.260951	0	0	0	0	0	0	1	-360	360	-3.1105	-1.0204	3.1131	1.0449	0.0000	0.0000	0.0000	0.0000;
	3493	5587	0	0.000222	0	299	0	0	0	0	1	-360	360	-295.5756	-44.9495	295.5756	45.1231	0.0000	0.0639	0.0000	0.0000;
	4586	3493	0.00692	0.337378	0	0	0	0	0	0	1	-360	360	4.6638	1.8723	-4.6623	-1.7986	0.0000	0.0000	0.0000	0.0000;
	228	3493	0.025991	0.10048	0	0	0	0	0	0	1	-360	360	37.8284	-1.4089	-37.5071	2.6511	0.0000	0.0000	0.0000	0.0000;
	6826	3493	0.083711	0.8648	0	0	0	0	0	0	1	-360	360	-0.5777	3.3477	0.5857	-3.2646	0.0000	0.0000	0.0000	0.0000;
	7563	3493	0.447378	1.862089	0	0	0	0	0	0	1	-360	360	-1.5056	0.8319	1.5170	-0.7844	0.0000	0.0000	0.0000	0.0000;
	4427	3493	0.062169	0.153191	0	0	0	0	0	0	1	-360	360	-9.2181	3.3941	9.2706	-3.2647	0.0000	0.0000	0.0000	0.0000;
	8335	3493	2.492533	4.725778	0	0	0	0	0	0	1	-360	360	-0.5106	-0.0544	0.5165	0.0656	0.0000	0.0000	0.0000	0.0000;
	5155	3493	0.020271	0.08244	0	0	0	0	0	0	1	-360	360	-18.7782	-2.7445	18.8428	3.0070	0.0000	0.0000	0.0000	0.0000;
	271	3493	0.11416	1.777556	0	0	0	0	0	0	1	-360	360	0.3957	0.0986	-0.3955	-0.0961	0.0000	0.0000	0.0000	0.0000;
	5776	3493	0.574978	2.992578	0	0	0	0	0	0	1	-360	360	0.0097	0.8248	-0.0064	-0.8077	0.0000	0.0000	0.0000	0.0000;
	2449	3493	1.887067	4.964444	0	0	0	0	0	0	1	-360	360	0.2622	0.5785	-0.2559	-0.5620	0.0000	0.0000	0.0000	0.0000;
	4665	3493	0.250778	0.817422	0	0	0	0	0	0	1	-360	360	-3.3482	1.0167	3.3750	-0.9291	0.0000	0.0000	0.0000	0.0000;
	4495	3493	0.007049	0.029609	0	0	0	0	0	0	1	-360	360	-68.5697	10.3458	68.8672	-9.0964	0.0000	0.0000	0.0000	0.0000;
	5587	4586	0.003049	0.020218	0	0	0	0	0	0	1	-360	360	-76.8783	-19.5669	77.0461	20.6793	0.0000	0.0000	0.0000	0.0000;
	4423	4586	0.002911	0.020262	0	0	0	0	0	0	1	-360	360	-141.6289	-2.1161	142.1381	5.6610	0.0000	0.0000	0.0000	0.0000;
	4929	2870	4e-05	0.00041	0	757	0	0	0	0	1	-360	360	0.0000	-0.6764	0.0000	0.6764	0.0000	0.0000	0.0000	0.0000;
	4929	659	0.00087	0.01087	0	1283	0	0	0	0	1	-360	360	-139.3115	43.5175	139.4814	-41.3950	0.0000	0.0000	0.0000	0.0000;
	4929	1037	4e-05	0.00046	0	757	0	0	0	0	1	-360	360	0.0000	-0.6000	-0.0000	0.6000	0.0000	0.0000	0.0000	0.0000;
	4929	659	0.00095	0.00924	0	1481	0	0	0	0	1	-360	360	-162.3534	54.7695	162.6090	-52.2828	0.0000	0.0000	0.0000	0.0000;
	1815	5210	0.528017	2.636157	0	0	0	0	0	0	1	-360	360	1.4022	0.1047	-1.3928	-0.0576	0.0000	0.0000	0.0000	0.0000;
	1815	1445	0.032031	0.128659	0	0	0	0	0	0	1	-360	360	19.3250	7.1552	-19.2019	-6.6609	0.0000	0.0000	0.0000	0.0000;
	1616	7762	0.00044	0.0032	0	1645	0	0	0	0	1	-360	360	-417.3033	-154.6618	418.1206	160.6057	0.0000	0.0000	0.0000	0.0000;
	1616	2520	0.00046	0.00489	0	1711	0	0	0	0	1	-360	360	275.7110	88.7883	-275.3491	-84.9407	0.0000	0.0000	0.0000	0.0000;
	9064	7762	0.0003	0.00352	0	1580	0	0	0	0	1	-360	360	-398.4226	-174.7130	398.9557	180.9677	0.0000	0.0000	0.0000	0.0000;
	9064	89	0.00051	0.00454	0	1645	0	0	0	0	1	-360	360	256.4486	111.4280	-256.0742	-108.0956	0.0000	0.0000	0.0000	0.0000;
	1317	659	0.00068	0.00746	0	1613	0	0	0	0	1	-360	360	-234.8636	26.8658	235.2140	-23.0222	0.0000	0.0000	0.0000	0.0000;
	1317	8605	0.00093	0.01022	0	1744	0	0	0	0	1	-360	360	85.5636	-2.3381	-85.5008	3.0285	0.0000	0.0000	0.0000	0.0000;
	8605	1367	4e-05	0.0004	0	1481	0	0	0	0	1	-360	360	294.7737	82.9620	-294.7391	-82.6158	0.0000	0.0000	0.0000	0.0000;
	8605	8921	0.00078	0.00698	0	1744	0	0	0	0	1	-360	360	390.7271	114.9667	-389.5330	-104.2811	0.0000	0.0000	0.0000	0.0000;
	1163	1676	4e-05	0.00043	0	1580	0	0	0	0	1	-360	360	124.6792	48.2843	-124.6725	-48.2115	0.0000	0.0000	0.0000	0.0000;
	1163	7051	0.00025	0.00309	0	1678	0	0	0	0	1	-360	360	-148.9161	-10.3627	148.9689	11.0155	0.0000	0.0000	0.0000	0.0000;
	913	7762	0.00047	0.00538	0	1613	0	0	0	0	1	-360	360	827.4764	319.9312	-824.1742	-282.1311	0.0000	0.0000	0.0000	0.0000;
	2107	7762	0.00046	0.00548	0	1744	0	0	0	0	1	-360	360	1034.7119	444.4636	-1029.5718	-383.2293	0.0000	0.0000	0.0000	0.0000;
	2107	5996	0.00016	0.00173	0	1843	0	0	0	0	1	-360	360	-96.8903	-35.6937	96.9053	35.8562	0.0000	0.0000	0.0000	0.0000;
	2107	6293	0.00166	0.01471	0	1744	0	0	0	0	1	-360	360	562.1784	253.1300	-556.6185	-203.8617	0.0000	0.0000	0.0000	0.0000;
	913	7762	0.00051	0.00512	0	1777	0	0	0	0	1	-360	360	872.5236	325.2259	-868.5761	-285.5963	0.0000	0.0000	0.0000	0.0000;
	6704	8921	0.00021	0.00248	0	1514	0	0	0	0	1	-360	360	-183.6740	-89.9305	183.7571	90.9119	0.0000	0.0000	0.0000	0.0000;
	228	4586	0.004391	0.021689	0	286	0	0	0	0	1	-360	360	102.6879	-14.0470	-102.2809	16.0571	0.0000	0.0000	0.0000	0.0000;
	2441	6293	0.00024	0.00289	0	1645	0	0	0	0	1	-360	360	-235.3377	-88.3602	235.4832	90.1114	0.0000	0.0000	0.0000	0.0000;
	955	3506	0	0.000222	0	338	0	0	0	0	1	-360	360	-279.3527	-104.3695	279.3527	104.5533	0.0000	0.0000	0.0000	0.0000;
	955	8964	0.01788	0.100471	0	0	0	0	0	0	1	-360	360	34.9561	-20.7840	-34.6808	22.3310	0.0000	0.0000	0.0000	0.0000;
	3506	2908	0.006458	0.039982	0	0	0	0	0	0	1	-360	360	-44.4974	-40.6687	44.7158	42.0207	0.0000	0.0000	0.0000	0.0000;
	228	6826	0.106151	0.993333	0	0	0	0	0	0	1	-360	360	4.4888	-2.4161	-4.4650	2.6388	0.0000	0.0000	0.0000	0.0000;
	228	5776	0.699778	3.232311	0	0	0	0	0	0	1	-360	360	1.1895	-0.7461	-1.1776	0.8011	0.0000	0.0000	0.0000	0.0000;
	8964	6826	0.257058	0.43592	0	0	0	0	0	0	1	-360	360	-15.6010	-1.0187	16.1696	1.9829	0.0000	0.0000	0.0000	0.0000;
	5776	6826	0.002769	0.011449	0	0	0	0	0	0	1	-360	360	20.8425	-36.6653	-20.8012	36.8361	0.0000	0.0000	0.0000	0.0000;
	659	8329	0.00034	0.00305	0	1580	0	0	0	0	1	-360	360	344.0171	141.7772	-343.5829	-137.8821	0.0000	0.0000	0.0000	0.0000;
	659	7051	0.00123	0.01255	0	1843	0	0	0	0	1	-360	360	420.0962	81.3254	-418.0189	-60.1296	0.0000	0.0000	0.0000	0.0000;
	659	9239	6e-05	0.00065	0	1415	0	0	0	0	1	-360	360	-419.9896	-62.4580	420.0894	63.5389	0.0000	0.0000	0.0000	0.0000;
	659	7960	6e-05	0.00063	0	1514	0	0	0	0	1	-360	360	-419.9896	-62.4580	420.0894	63.5057	0.0000	0.0000	0.0000	0.0000;
	659	6233	6e-05	0.00055	0	1744	0	0	0	0	1	-360	360	-480.1919	154.5320	480.3327	-153.2410	0.0000	0.0000	0.0000	0.0000;
	659	5416	0.00079	0.00968	0	1349	0	0	0	0	1	-360	360	21.4137	-99.7363	-21.3379	100.6655	0.0000	0.0000	0.0000	0.0000;
	659	6798	7e-05	0.00079	0	0	0	0	0	0	1	-360	360	-359.9912	-53.5354	360.0767	54.5006	0.0000	0.0000	0.0000	0.0000;
	792	3279	0	0.000222	0	377	0	0	0	0	1	-360	360	-269.5247	-8.6208	269.5247	8.7698	0.0000	0.0000	0.0000	0.0000;
	7563	792	2.064178	7.545333	0	0	0	0	0	0	1	-360	360	-0.5397	0.6815	0.5531	-0.6324	0.0000	0.0000	0.0000	0.0000;
	7279	792	0.153711	0.482489	0	0	0	0	0	0	1	-360	360	1.6427	8.7151	-1.5395	-8.3911	0.0000	0.0000	0.0000	0.0000;
	8335	792	0.015809	0.12368	0	0	0	0	0	0	1	-360	360	-34.6749	16.8894	34.8863	-15.2354	0.0000	0.0000	0.0000	0.0000;
	2449	792	0.057978	0.363422	0	0	0	0	0	0	1	-360	360	-3.2095	18.4421	3.3774	-17.3896	0.0000	0.0000	0.0000	0.0000;
	4665	792	0.6932	2.196889	0	0	0	0	0	0	1	-360	360	-1.7794	1.9803	1.8224	-1.8440	0.0000	0.0000	0.0000	0.0000;
	4495	792	0.560356	2.395867	0	0	0	0	0	0	1	-360	360	-1.4761	1.5668	1.4989	-1.4694	0.0000	0.0000	0.0000	0.0000;
	5416	2267	0.00024	0.00213	0	757	0	0	0	0	1	-360	360	-154.4159	-22.5986	154.4689	23.0689	0.0000	0.0000	0.0000	0.0000;
	5416	7637	0.00093	0.00884	0	1283	0	0	0	0	1	-360	360	175.7538	-50.3444	-175.4720	53.0228	0.0000	0.0000	0.0000	0.0000;
	8964	2168	0	0.000222	0	312	0	0	0	0	1	-360	360	-259.9204	-65.5584	259.9204	65.7028	0.0000	0.0000	0.0000	0.0000;
	3659	5996	0.00018	0.00204	0	1777	0	0	0	0	1	-360	360	594.4382	101.8533	-593.8652	-95.3594	0.0000	0.0000	0.0000	0.0000;
	5762	5996	0.00018	0.00208	0	757	0	0	0	0	1	-360	360	-0.0000	2.5346	0.0000	-2.5344	0.0000	0.0000	0.0000	0.0000;
	3242	5097	0	0.000222	0	0	0	0	0	0	1	-360	360	-4.1156	25.5026	4.1156	-25.5013	0.0000	0.0000	0.0000	0.0000;
	7563	3242	0.02068	0.093391	0	0	0	0	0	0	1	-360	360	-61.7237	1.1225	62.4030	1.9453	0.0000	0.0000	0.0000	0.0000;
	4427	3242	0.777778	7.408	0	0	0	0	0	0	1	-360	360	-0.5888	-0.2242	0.5915	0.2499	0.0000	0.0000	0.0000	0.0000;
	3242	7279	0.00884	0.07292	0	0	0	0	0	0	1	-360	360	9.7566	9.5640	-9.7427	-9.4493	0.0000	0.0000	0.0000	0.0000;
...